

         NASA-GLENN CHEMICAL EQUILIBRIUM PROGRAM CEA2, FEBRUARY 5, 2004
                   BY  BONNIE MCBRIDE AND SANFORD GORDON
      REFS: NASA RP-1311, PART I, 1994 AND NASA RP-1311, PART II, 1996

 *******************************************************************************

  
 ### CEA analysis performed on Sat 07-Nov-2020 08:33:45
  
 # Problem Type: "Rocket" (Infinite Area Combustor)
  
 prob case=jlvz___________2418 ro equilibrium frozen
  
 # Pressure (12 values):
 p,bar= 60, 70, 80, 90, 100, 110, 120, 130, 140, 150, 160, 170
 # Chamber/Exit Pressure Ratio (1 value):
 pi/p= 1
  
 # Oxidizer/Fuel Wt. ratio (13 values):
 o/f= 1.6, 1.8, 2, 2.2, 2.4, 2.6, 2.8, 3, 3.2, 3.4, 3.6, 3.8, 4
  
 # You selected the following fuels and oxidizers:
 reac
 fuel RP-1              wt%=100.0000
 oxid O2(L)             wt%=100.0000
  
 # You selected these options for output:
 # short version of output
 output short
 # Proportions of any products will be expressed as Mass Fractions.
 output massf
 # Heat will be expressed as siunits
 output siunits
 # Plot parameters:
 output plot gamfz mwfz tfz p ispfz
  
  
 # Input prepared by this script:prepareInputFile.cgi
  
 ### IMPORTANT:  The following line is the end of your CEA input file!
 end

              THEORETICAL ROCKET PERFORMANCE ASSUMING EQUILIBRIUM

           COMPOSITION DURING EXPANSION FROM INFINITE AREA COMBUSTOR

 Pin =   870.2 PSIA
 CASE = jlvz___________

             REACTANT                    WT FRACTION      ENERGY      TEMP
                                          (SEE NOTE)     KJ/KG-MOL      K  
 FUEL        RP-1                         1.0000000    -24717.700    298.150
 OXIDANT     O2(L)                        1.0000000    -12979.000     90.170

 O/F=    1.60000  %FUEL= 38.461538  R,EQ.RATIO= 2.128541  PHI,EQ.RATIO= 2.128541

                 CHAMBER   THROAT     EXIT
 Pinf/P            1.0000   1.8017   1.0000
 P, BAR            60.000   33.301   60.000
 T, K             2710.25  2419.82  2710.25
 RHO, KG/CU M    4.8868 0 3.0424 0 4.8868 0
 H, KJ/KG         -929.82 -1612.98  -929.82
 U, KJ/KG        -2157.63 -2707.54 -2157.63
 G, KJ/KG        -34296.9 -31404.4 -34296.9
 S, KJ/(KG)(K)    12.3114  12.3114  12.3114

 M, (1/n)          18.353   18.381   18.353
 (dLV/dLP)t      -1.00126 -1.00049 -1.00126
 (dLV/dLT)p        1.0261   1.0111   1.0261
 Cp, KJ/(KG)(K)    2.4792   2.3194   2.4792
 GAMMAs            1.2363   1.2483   1.2363
 SON VEL,M/SEC     1232.1   1168.9   1232.1
 MACH NUMBER        0.000    1.000    0.000

 PERFORMANCE PARAMETERS

 Ae/At                      1.0000 1539168.
 CSTAR, M/SEC               1687.2   1687.2
 CF                         0.6928   0.0000
 Ivac, M/SEC                2105.3*********
 Isp, M/SEC                 1168.9      0.0

 MASS FRACTIONS

 *CO              0.71689  0.71203  0.71689
 *CO2             0.08469  0.09236  0.08469
 *H               0.00024  0.00010  0.00024
 HCO              0.00002  0.00001  0.00002
 *H2              0.03570  0.03617  0.03570
 HCHO,formaldehy  0.00001  0.00000  0.00001
 H2O              0.16186  0.15917  0.16186
 *OH              0.00058  0.00017  0.00058

  * THERMODYNAMIC PROPERTIES FITTED TO 20000.K

 NOTE. WEIGHT FRACTION OF FUEL IN TOTAL FUELS AND OF OXIDANT IN TOTAL OXIDANTS

           THEORETICAL ROCKET PERFORMANCE ASSUMING FROZEN COMPOSITION

 Pin =   870.2 PSIA
 CASE = jlvz___________

             REACTANT                    WT FRACTION      ENERGY      TEMP
                                          (SEE NOTE)     KJ/KG-MOL      K  
 FUEL        RP-1                         1.0000000    -24717.700    298.150
 OXIDANT     O2(L)                        1.0000000    -12979.000     90.170

 O/F=    1.60000  %FUEL= 38.461538  R,EQ.RATIO= 2.128541  PHI,EQ.RATIO= 2.128541

                 CHAMBER   THROAT     EXIT
 Pinf/P            1.0000   1.8098   1.0000
 P, BAR            60.000   33.153   60.000
 T, K             2710.25  2398.54  2710.25
 RHO, KG/CU M    4.8868 0 3.0511 0 4.8868 0
 H, KJ/KG         -929.82 -1615.53  -929.82
 U, KJ/KG        -2157.63 -2702.13 -2157.63
 G, KJ/KG        -34296.9 -31145.0 -34296.9
 S, KJ/(KG)(K)    12.3114  12.3114  12.3114

 M, (1/n)          18.353   18.353   18.353
 Cp, KJ/(KG)(K)    2.2173   2.1812   2.2173
 GAMMAs            1.2568   1.2621   1.2568
 SON VEL,M/SEC     1242.2   1171.1   1242.2
 MACH NUMBER        0.000    1.000    0.000

 PERFORMANCE PARAMETERS

 Ae/At                      1.0000 8279887.
 CSTAR, M/SEC               1679.2   1679.2
 CF                         0.6974   0.0000
 Ivac, M/SEC                2098.9*********
 Isp, M/SEC                 1171.1      0.0

 MASS FRACTIONS

 *CO             0.71689   *CO2            0.08469   *H              0.00024
 HCO             0.00002   *H2             0.03570   HCHO,formaldehy 0.00001
 H2O             0.16186   *OH             0.00058

  * THERMODYNAMIC PROPERTIES FITTED TO 20000.K

 NOTE. WEIGHT FRACTION OF FUEL IN TOTAL FUELS AND OF OXIDANT IN TOTAL OXIDANTS

              THEORETICAL ROCKET PERFORMANCE ASSUMING EQUILIBRIUM

           COMPOSITION DURING EXPANSION FROM INFINITE AREA COMBUSTOR

 Pin =  1015.3 PSIA
 CASE = jlvz___________

             REACTANT                    WT FRACTION      ENERGY      TEMP
                                          (SEE NOTE)     KJ/KG-MOL      K  
 FUEL        RP-1                         1.0000000    -24717.700    298.150
 OXIDANT     O2(L)                        1.0000000    -12979.000     90.170

 O/F=    1.60000  %FUEL= 38.461538  R,EQ.RATIO= 2.128541  PHI,EQ.RATIO= 2.128541

                 CHAMBER   THROAT     EXIT
 Pinf/P            1.0000   1.8021   1.0000
 P, BAR            70.000   38.843   70.000
 T, K             2712.18  2420.39  2712.18
 RHO, KG/CU M    5.6981 0 3.5482 0 5.6981 0
 H, KJ/KG         -929.82 -1613.46  -929.82
 U, KJ/KG        -2158.29 -2708.20 -2158.29
 G, KJ/KG        -34131.3 -31242.9 -34131.3
 S, KJ/(KG)(K)    12.2416  12.2416  12.2416

 M, (1/n)          18.356   18.383   18.356
 (dLV/dLP)t      -1.00118 -1.00045 -1.00118
 (dLV/dLT)p        1.0244   1.0103   1.0244
 Cp, KJ/(KG)(K)    2.4622   2.3110   2.4622
 GAMMAs            1.2374   1.2489   1.2374
 SON VEL,M/SEC     1232.9   1169.3   1232.9
 MACH NUMBER        0.000    1.000     -nan

 PERFORMANCE PARAMETERS

 Ae/At                      1.0000     -nan
 CSTAR, M/SEC               1687.2   1687.2
 CF                         0.6930     -nan
 Ivac, M/SEC                2105.5     -nan
 Isp, M/SEC                 1169.3     -nan

 MASS FRACTIONS

 *CO              0.71692  0.71204  0.71692
 *CO2             0.08464  0.09233  0.08464
 *H               0.00022  0.00009  0.00022
 HCO              0.00002  0.00001  0.00002
 *H2              0.03571  0.03618  0.03571
 HCHO,formaldehy  0.00001  0.00000  0.00001
 HCOOH            0.00001  0.00000  0.00001
 H2O              0.16193  0.15919  0.16193
 *OH              0.00054  0.00015  0.00054

  * THERMODYNAMIC PROPERTIES FITTED TO 20000.K

 NOTE. WEIGHT FRACTION OF FUEL IN TOTAL FUELS AND OF OXIDANT IN TOTAL OXIDANTS

           THEORETICAL ROCKET PERFORMANCE ASSUMING FROZEN COMPOSITION

 Pin =  1015.3 PSIA
 CASE = jlvz___________

             REACTANT                    WT FRACTION      ENERGY      TEMP
                                          (SEE NOTE)     KJ/KG-MOL      K  
 FUEL        RP-1                         1.0000000    -24717.700    298.150
 OXIDANT     O2(L)                        1.0000000    -12979.000     90.170

 O/F=    1.60000  %FUEL= 38.461538  R,EQ.RATIO= 2.128541  PHI,EQ.RATIO= 2.128541

                 CHAMBER   THROAT     EXIT
 Pinf/P            1.0000   1.8097   1.0000
 P, BAR            70.000   38.680   70.000
 T, K             2712.18  2400.34  2712.18
 RHO, KG/CU M    5.6981 0 3.5577 0 5.6981 0
 H, KJ/KG         -929.82 -1615.88  -929.82
 U, KJ/KG        -2158.29 -2703.11 -2158.29
 G, KJ/KG        -34131.3 -30999.9 -34131.3
 S, KJ/(KG)(K)    12.2416  12.2416  12.2416

 M, (1/n)          18.356   18.356   18.356
 Cp, KJ/(KG)(K)    2.2175   2.1813   2.2175
 GAMMAs            1.2567   1.2621   1.2567
 SON VEL,M/SEC     1242.5   1171.4   1242.5
 MACH NUMBER        0.000    1.000     -nan

 PERFORMANCE PARAMETERS

 Ae/At                      1.0000     -nan
 CSTAR, M/SEC               1679.7   1679.7
 CF                         0.6974     -nan
 Ivac, M/SEC                2099.5     -nan
 Isp, M/SEC                 1171.4     -nan

 MASS FRACTIONS

 *CO             0.71692   *CO2            0.08464   *H              0.00022
 HCO             0.00002   *H2             0.03571   HCHO,formaldehy 0.00001
 HCOOH           0.00001   H2O             0.16193   *OH             0.00054

  * THERMODYNAMIC PROPERTIES FITTED TO 20000.K

 NOTE. WEIGHT FRACTION OF FUEL IN TOTAL FUELS AND OF OXIDANT IN TOTAL OXIDANTS

              THEORETICAL ROCKET PERFORMANCE ASSUMING EQUILIBRIUM

           COMPOSITION DURING EXPANSION FROM INFINITE AREA COMBUSTOR

 Pin =  1160.3 PSIA
 CASE = jlvz___________

             REACTANT                    WT FRACTION      ENERGY      TEMP
                                          (SEE NOTE)     KJ/KG-MOL      K  
 FUEL        RP-1                         1.0000000    -24717.700    298.150
 OXIDANT     O2(L)                        1.0000000    -12979.000     90.170

 O/F=    1.60000  %FUEL= 38.461538  R,EQ.RATIO= 2.128541  PHI,EQ.RATIO= 2.128541

                 CHAMBER   THROAT     EXIT
 Pinf/P            1.0000   1.8024   1.0000
 P, BAR            80.000   44.385   80.000
 T, K             2713.76  2420.86  2713.76
 RHO, KG/CU M    6.5093 0 4.0538 0 6.5093 0
 H, KJ/KG         -929.82 -1613.85  -929.82
 U, KJ/KG        -2158.84 -2708.74 -2158.84
 G, KJ/KG        -33986.5 -31102.6 -33986.5
 S, KJ/(KG)(K)    12.1811  12.1811  12.1811

 M, (1/n)          18.359   18.384   18.359
 (dLV/dLP)t      -1.00111 -1.00043 -1.00111
 (dLV/dLT)p        1.0229   1.0097   1.0229
 Cp, KJ/(KG)(K)    2.4483   2.3042   2.4483
 GAMMAs            1.2383   1.2495   1.2383
 SON VEL,M/SEC     1233.6   1169.6   1233.6
 MACH NUMBER        0.000    1.000     -nan

 PERFORMANCE PARAMETERS

 Ae/At                      1.0000     -nan
 CSTAR, M/SEC               1687.2   1687.2
 CF                         0.6932     -nan
 Ivac, M/SEC                2105.7     -nan
 Isp, M/SEC                 1169.6     -nan

 MASS FRACTIONS

 *CO              0.71694  0.71205  0.71694
 *CO2             0.08460  0.09231  0.08460
 *H               0.00021  0.00008  0.00021
 HCO              0.00002  0.00001  0.00002
 *H2              0.03572  0.03618  0.03572
 HCHO,formaldehy  0.00001  0.00000  0.00001
 HCOOH            0.00001  0.00000  0.00001
 H2O              0.16198  0.15921  0.16198
 *OH              0.00051  0.00014  0.00051

  * THERMODYNAMIC PROPERTIES FITTED TO 20000.K

 NOTE. WEIGHT FRACTION OF FUEL IN TOTAL FUELS AND OF OXIDANT IN TOTAL OXIDANTS

           THEORETICAL ROCKET PERFORMANCE ASSUMING FROZEN COMPOSITION

 Pin =  1160.3 PSIA
 CASE = jlvz___________

             REACTANT                    WT FRACTION      ENERGY      TEMP
                                          (SEE NOTE)     KJ/KG-MOL      K  
 FUEL        RP-1                         1.0000000    -24717.700    298.150
 OXIDANT     O2(L)                        1.0000000    -12979.000     90.170

 O/F=    1.60000  %FUEL= 38.461538  R,EQ.RATIO= 2.128541  PHI,EQ.RATIO= 2.128541

                 CHAMBER   THROAT     EXIT
 Pinf/P            1.0000   1.8097   1.0000
 P, BAR            80.000   44.207   80.000
 T, K             2713.76  2401.81  2713.76
 RHO, KG/CU M    6.5093 0 4.0641 0 6.5093 0
 H, KJ/KG         -929.82 -1616.17  -929.82
 U, KJ/KG        -2158.84 -2703.91 -2158.84
 G, KJ/KG        -33986.5 -30872.9 -33986.5
 S, KJ/(KG)(K)    12.1811  12.1811  12.1811

 M, (1/n)          18.359   18.359   18.359
 Cp, KJ/(KG)(K)    2.2176   2.1815   2.2176
 GAMMAs            1.2566   1.2620   1.2566
 SON VEL,M/SEC     1242.7   1171.6   1242.7
 MACH NUMBER        0.000    1.000    0.000

 PERFORMANCE PARAMETERS

 Ae/At                      1.0000      inf
 CSTAR, M/SEC               1680.1   1680.1
 CF                         0.6973   0.0000
 Ivac, M/SEC                2100.0      inf
 Isp, M/SEC                 1171.6      0.0

 MASS FRACTIONS

 *CO             0.71694   *CO2            0.08460   *H              0.00021
 HCO             0.00002   *H2             0.03572   HCHO,formaldehy 0.00001
 HCOOH           0.00001   H2O             0.16198   *OH             0.00051

  * THERMODYNAMIC PROPERTIES FITTED TO 20000.K

 NOTE. WEIGHT FRACTION OF FUEL IN TOTAL FUELS AND OF OXIDANT IN TOTAL OXIDANTS

              THEORETICAL ROCKET PERFORMANCE ASSUMING EQUILIBRIUM

           COMPOSITION DURING EXPANSION FROM INFINITE AREA COMBUSTOR

 Pin =  1305.3 PSIA
 CASE = jlvz___________

             REACTANT                    WT FRACTION      ENERGY      TEMP
                                          (SEE NOTE)     KJ/KG-MOL      K  
 FUEL        RP-1                         1.0000000    -24717.700    298.150
 OXIDANT     O2(L)                        1.0000000    -12979.000     90.170

 O/F=    1.60000  %FUEL= 38.461538  R,EQ.RATIO= 2.128541  PHI,EQ.RATIO= 2.128541

                 CHAMBER   THROAT     EXIT
 Pinf/P            1.0000   1.8027   1.0000
 P, BAR            90.000   49.926   90.000
 T, K             2715.08  2421.24  2715.08
 RHO, KG/CU M    7.3202 0 4.5594 0 7.3202 0
 H, KJ/KG         -929.82 -1614.18  -929.82
 U, KJ/KG        -2159.29 -2709.19 -2159.29
 G, KJ/KG        -33857.8 -30978.5 -33857.8
 S, KJ/(KG)(K)    12.1278  12.1278  12.1278

 M, (1/n)          18.361   18.385   18.361
 (dLV/dLP)t      -1.00106 -1.00041 -1.00106
 (dLV/dLT)p        1.0217   1.0092   1.0217
 Cp, KJ/(KG)(K)    2.4368   2.2986   2.4368
 GAMMAs            1.2390   1.2500   1.2390
 SON VEL,M/SEC     1234.3   1169.9   1234.3
 MACH NUMBER        0.000    1.000     -nan

 PERFORMANCE PARAMETERS

 Ae/At                      1.0000     -nan
 CSTAR, M/SEC               1687.3   1687.3
 CF                         0.6934     -nan
 Ivac, M/SEC                2105.9     -nan
 Isp, M/SEC                 1169.9     -nan

 MASS FRACTIONS

 *CO              0.71696  0.71206  0.71696
 *CO2             0.08456  0.09230  0.08456
 *H               0.00020  0.00008  0.00020
 HCO              0.00003  0.00001  0.00003
 *H2              0.03573  0.03618  0.03573
 HCHO,formaldehy  0.00001  0.00001  0.00001
 HCOOH            0.00001  0.00000  0.00001
 H2O              0.16202  0.15923  0.16202
 *OH              0.00048  0.00014  0.00048

  * THERMODYNAMIC PROPERTIES FITTED TO 20000.K

 NOTE. WEIGHT FRACTION OF FUEL IN TOTAL FUELS AND OF OXIDANT IN TOTAL OXIDANTS

           THEORETICAL ROCKET PERFORMANCE ASSUMING FROZEN COMPOSITION

 Pin =  1305.3 PSIA
 CASE = jlvz___________

             REACTANT                    WT FRACTION      ENERGY      TEMP
                                          (SEE NOTE)     KJ/KG-MOL      K  
 FUEL        RP-1                         1.0000000    -24717.700    298.150
 OXIDANT     O2(L)                        1.0000000    -12979.000     90.170

 O/F=    1.60000  %FUEL= 38.461538  R,EQ.RATIO= 2.128541  PHI,EQ.RATIO= 2.128541

                 CHAMBER   THROAT     EXIT
 Pinf/P            1.0000   1.8096   1.0000
 P, BAR            90.000   49.734   90.000
 T, K             2715.08  2403.04  2715.08
 RHO, KG/CU M    7.3202 0 4.5704 0 7.3202 0
 H, KJ/KG         -929.82 -1616.41  -929.82
 U, KJ/KG        -2159.29 -2704.58 -2159.29
 G, KJ/KG        -33857.8 -30760.0 -33857.8
 S, KJ/(KG)(K)    12.1278  12.1278  12.1278

 M, (1/n)          18.361   18.361   18.361
 Cp, KJ/(KG)(K)    2.2177   2.1816   2.2177
 GAMMAs            1.2566   1.2619   1.2566
 SON VEL,M/SEC     1242.9   1171.8   1242.9
 MACH NUMBER        0.000    1.000    0.000

 PERFORMANCE PARAMETERS

 Ae/At                      1.0000 4051460.
 CSTAR, M/SEC               1680.4   1680.4
 CF                         0.6973   0.0000
 Ivac, M/SEC                2100.4*********
 Isp, M/SEC                 1171.8      0.0

 MASS FRACTIONS

 *CO             0.71696   *CO2            0.08456   *H              0.00020
 HCO             0.00003   *H2             0.03573   HCHO,formaldehy 0.00001
 HCOOH           0.00001   H2O             0.16202   *OH             0.00048

  * THERMODYNAMIC PROPERTIES FITTED TO 20000.K

 NOTE. WEIGHT FRACTION OF FUEL IN TOTAL FUELS AND OF OXIDANT IN TOTAL OXIDANTS

              THEORETICAL ROCKET PERFORMANCE ASSUMING EQUILIBRIUM

           COMPOSITION DURING EXPANSION FROM INFINITE AREA COMBUSTOR

 Pin =  1450.4 PSIA
 CASE = jlvz___________

             REACTANT                    WT FRACTION      ENERGY      TEMP
                                          (SEE NOTE)     KJ/KG-MOL      K  
 FUEL        RP-1                         1.0000000    -24717.700    298.150
 OXIDANT     O2(L)                        1.0000000    -12979.000     90.170

 O/F=    1.60000  %FUEL= 38.461538  R,EQ.RATIO= 2.128541  PHI,EQ.RATIO= 2.128541

                 CHAMBER   THROAT     EXIT
 Pinf/P            1.0000   1.8029   1.0000
 P, BAR            100.00   55.466   100.00
 T, K             2716.21  2421.57  2716.21
 RHO, KG/CU M    8.1310 0 5.0649 0 8.1310 0
 H, KJ/KG         -929.82 -1614.45  -929.82
 U, KJ/KG        -2159.68 -2709.57 -2159.68
 G, KJ/KG        -33741.9 -30867.2 -33741.9
 S, KJ/(KG)(K)    12.0801  12.0801  12.0801

 M, (1/n)          18.363   18.385   18.363
 (dLV/dLP)t      -1.00101 -1.00039 -1.00101
 (dLV/dLT)p        1.0207   1.0087   1.0207
 Cp, KJ/(KG)(K)    2.4269   2.2938   2.4269
 GAMMAs            1.2397   1.2503   1.2397
 SON VEL,M/SEC     1234.8   1170.2   1234.8
 MACH NUMBER        0.000    1.000     -nan

 PERFORMANCE PARAMETERS

 Ae/At                      1.0000     -nan
 CSTAR, M/SEC               1687.3   1687.3
 CF                         0.6935     -nan
 Ivac, M/SEC                2106.0     -nan
 Isp, M/SEC                 1170.2     -nan

 MASS FRACTIONS

 *CO              0.71697  0.71207  0.71697
 *CO2             0.08453  0.09228  0.08453
 *H               0.00019  0.00007  0.00019
 HCO              0.00003  0.00001  0.00003
 *H2              0.03574  0.03619  0.03574
 HCHO,formaldehy  0.00001  0.00001  0.00001
 HCOOH            0.00001  0.00000  0.00001
 H2O              0.16205  0.15924  0.16205
 *OH              0.00046  0.00013  0.00046

  * THERMODYNAMIC PROPERTIES FITTED TO 20000.K

 NOTE. WEIGHT FRACTION OF FUEL IN TOTAL FUELS AND OF OXIDANT IN TOTAL OXIDANTS

           THEORETICAL ROCKET PERFORMANCE ASSUMING FROZEN COMPOSITION

 Pin =  1450.4 PSIA
 CASE = jlvz___________

             REACTANT                    WT FRACTION      ENERGY      TEMP
                                          (SEE NOTE)     KJ/KG-MOL      K  
 FUEL        RP-1                         1.0000000    -24717.700    298.150
 OXIDANT     O2(L)                        1.0000000    -12979.000     90.170

 O/F=    1.60000  %FUEL= 38.461538  R,EQ.RATIO= 2.128541  PHI,EQ.RATIO= 2.128541

                 CHAMBER   THROAT     EXIT
 Pinf/P            1.0000   1.8096   1.0000
 P, BAR            100.00   55.261   100.00
 T, K             2716.21  2404.09  2716.21
 RHO, KG/CU M    8.1310 0 5.0766 0 8.1310 0
 H, KJ/KG         -929.82 -1616.61  -929.82
 U, KJ/KG        -2159.68 -2705.15 -2159.68
 G, KJ/KG        -33741.9 -30658.2 -33741.9
 S, KJ/(KG)(K)    12.0801  12.0801  12.0801

 M, (1/n)          18.363   18.363   18.363
 Cp, KJ/(KG)(K)    2.2178   2.1817   2.2178
 GAMMAs            1.2565   1.2619   1.2565
 SON VEL,M/SEC     1243.1   1172.0   1243.1
 MACH NUMBER        0.000    1.000     -nan

 PERFORMANCE PARAMETERS

 Ae/At                      1.0000     -nan
 CSTAR, M/SEC               1680.7   1680.7
 CF                         0.6973     -nan
 Ivac, M/SEC                2100.8     -nan
 Isp, M/SEC                 1172.0     -nan

 MASS FRACTIONS

 *CO             0.71697   *CO2            0.08453   *H              0.00019
 HCO             0.00003   *H2             0.03574   HCHO,formaldehy 0.00001
 HCOOH           0.00001   H2O             0.16205   *OH             0.00046

  * THERMODYNAMIC PROPERTIES FITTED TO 20000.K

 NOTE. WEIGHT FRACTION OF FUEL IN TOTAL FUELS AND OF OXIDANT IN TOTAL OXIDANTS

              THEORETICAL ROCKET PERFORMANCE ASSUMING EQUILIBRIUM

           COMPOSITION DURING EXPANSION FROM INFINITE AREA COMBUSTOR

 Pin =  1595.4 PSIA
 CASE = jlvz___________

             REACTANT                    WT FRACTION      ENERGY      TEMP
                                          (SEE NOTE)     KJ/KG-MOL      K  
 FUEL        RP-1                         1.0000000    -24717.700    298.150
 OXIDANT     O2(L)                        1.0000000    -12979.000     90.170

 O/F=    1.60000  %FUEL= 38.461538  R,EQ.RATIO= 2.128541  PHI,EQ.RATIO= 2.128541

                 CHAMBER   THROAT     EXIT
 Pinf/P            1.0000   1.8031   1.0000
 P, BAR            110.00   61.008   110.00
 T, K             2717.19  2421.86  2717.19
 RHO, KG/CU M    8.9417 0 5.5704 0 8.9417 0
 H, KJ/KG         -929.82 -1614.67  -929.82
 U, KJ/KG        -2160.02 -2709.88 -2160.02
 G, KJ/KG        -33636.4 -30766.5 -33636.4
 S, KJ/(KG)(K)    12.0369  12.0369  12.0369

 M, (1/n)          18.365   18.386   18.365
 (dLV/dLP)t      -1.00097 -1.00037 -1.00097
 (dLV/dLT)p        1.0198   1.0083   1.0198
 Cp, KJ/(KG)(K)    2.4184   2.2897   2.4184
 GAMMAs            1.2403   1.2507   1.2403
 SON VEL,M/SEC     1235.2   1170.4   1235.2
 MACH NUMBER        0.000    1.000     -nan

 PERFORMANCE PARAMETERS

 Ae/At                      1.0000     -nan
 CSTAR, M/SEC               1687.3   1687.3
 CF                         0.6936     -nan
 Ivac, M/SEC                2106.1     -nan
 Isp, M/SEC                 1170.3     -nan

 MASS FRACTIONS

 *CO              0.71699  0.71207  0.71699
 *CO2             0.08451  0.09227  0.08451
 *H               0.00018  0.00007  0.00018
 HCO              0.00003  0.00001  0.00003
 *H2              0.03574  0.03619  0.03574
 HCHO,formaldehy  0.00001  0.00001  0.00001
 HCOOH            0.00001  0.00000  0.00001
 H2O              0.16209  0.15925  0.16209
 *OH              0.00044  0.00012  0.00044

  * THERMODYNAMIC PROPERTIES FITTED TO 20000.K

 NOTE. WEIGHT FRACTION OF FUEL IN TOTAL FUELS AND OF OXIDANT IN TOTAL OXIDANTS

           THEORETICAL ROCKET PERFORMANCE ASSUMING FROZEN COMPOSITION

 Pin =  1595.4 PSIA
 CASE = jlvz___________

             REACTANT                    WT FRACTION      ENERGY      TEMP
                                          (SEE NOTE)     KJ/KG-MOL      K  
 FUEL        RP-1                         1.0000000    -24717.700    298.150
 OXIDANT     O2(L)                        1.0000000    -12979.000     90.170

 O/F=    1.60000  %FUEL= 38.461538  R,EQ.RATIO= 2.128541  PHI,EQ.RATIO= 2.128541

                 CHAMBER   THROAT     EXIT
 Pinf/P            1.0000   1.8096   1.0000
 P, BAR            110.00   60.788   110.00
 T, K             2717.19  2405.00  2717.19
 RHO, KG/CU M    8.9417 0 5.5827 0 8.9417 0
 H, KJ/KG         -929.82 -1616.79  -929.82
 U, KJ/KG        -2160.02 -2705.64 -2160.02
 G, KJ/KG        -33636.4 -30565.6 -33636.4
 S, KJ/(KG)(K)    12.0369  12.0369  12.0369

 M, (1/n)          18.365   18.365   18.365
 Cp, KJ/(KG)(K)    2.2179   2.1818   2.2179
 GAMMAs            1.2565   1.2618   1.2565
 SON VEL,M/SEC     1243.3   1172.2   1243.3
 MACH NUMBER        0.000    1.000     -nan

 PERFORMANCE PARAMETERS

 Ae/At                      1.0000     -nan
 CSTAR, M/SEC               1681.0   1681.0
 CF                         0.6973     -nan
 Ivac, M/SEC                2101.1     -nan
 Isp, M/SEC                 1172.2     -nan

 MASS FRACTIONS

 *CO             0.71699   *CO2            0.08451   *H              0.00018
 HCO             0.00003   *H2             0.03574   HCHO,formaldehy 0.00001
 HCOOH           0.00001   H2O             0.16209   *OH             0.00044

  * THERMODYNAMIC PROPERTIES FITTED TO 20000.K

 NOTE. WEIGHT FRACTION OF FUEL IN TOTAL FUELS AND OF OXIDANT IN TOTAL OXIDANTS

              THEORETICAL ROCKET PERFORMANCE ASSUMING EQUILIBRIUM

           COMPOSITION DURING EXPANSION FROM INFINITE AREA COMBUSTOR

 Pin =  1740.5 PSIA
 CASE = jlvz___________

             REACTANT                    WT FRACTION      ENERGY      TEMP
                                          (SEE NOTE)     KJ/KG-MOL      K  
 FUEL        RP-1                         1.0000000    -24717.700    298.150
 OXIDANT     O2(L)                        1.0000000    -12979.000     90.170

 O/F=    1.60000  %FUEL= 38.461538  R,EQ.RATIO= 2.128541  PHI,EQ.RATIO= 2.128541

                 CHAMBER   THROAT     EXIT
 Pinf/P            1.0000   1.8032   1.0000
 P, BAR            120.00   66.548   120.00
 T, K             2718.05  2422.11  2718.05
 RHO, KG/CU M    9.7522 0 6.0758 0 9.7522 0
 H, KJ/KG         -929.82 -1614.88  -929.82
 U, KJ/KG        -2160.31 -2710.17 -2160.31
 G, KJ/KG        -33539.7 -30674.2 -33539.7
 S, KJ/(KG)(K)    11.9975  11.9975  11.9975

 M, (1/n)          18.366   18.387   18.366
 (dLV/dLP)t      -1.00094 -1.00036 -1.00094
 (dLV/dLT)p        1.0190   1.0080   1.0190
 Cp, KJ/(KG)(K)    2.4109   2.2861   2.4109
 GAMMAs            1.2408   1.2510   1.2408
 SON VEL,M/SEC     1235.6   1170.5   1235.6
 MACH NUMBER        0.000    1.000     -nan

 PERFORMANCE PARAMETERS

 Ae/At                      1.0000     -nan
 CSTAR, M/SEC               1687.3   1687.3
 CF                         0.6937     -nan
 Ivac, M/SEC                2106.2     -nan
 Isp, M/SEC                 1170.5     -nan

 MASS FRACTIONS

 *CO              0.71700  0.71208  0.71700
 *CO2             0.08448  0.09226  0.08448
 *H               0.00017  0.00007  0.00017
 HCO              0.00003  0.00001  0.00003
 *H2              0.03575  0.03619  0.03575
 HCHO,formaldehy  0.00001  0.00001  0.00001
 HCOOH            0.00001  0.00000  0.00001
 H2O              0.16211  0.15926  0.16211
 *OH              0.00042  0.00012  0.00042

  * THERMODYNAMIC PROPERTIES FITTED TO 20000.K

 NOTE. WEIGHT FRACTION OF FUEL IN TOTAL FUELS AND OF OXIDANT IN TOTAL OXIDANTS

           THEORETICAL ROCKET PERFORMANCE ASSUMING FROZEN COMPOSITION

 Pin =  1740.5 PSIA
 CASE = jlvz___________

             REACTANT                    WT FRACTION      ENERGY      TEMP
                                          (SEE NOTE)     KJ/KG-MOL      K  
 FUEL        RP-1                         1.0000000    -24717.700    298.150
 OXIDANT     O2(L)                        1.0000000    -12979.000     90.170

 O/F=    1.60000  %FUEL= 38.461538  R,EQ.RATIO= 2.128541  PHI,EQ.RATIO= 2.128541

                 CHAMBER   THROAT     EXIT
 Pinf/P            1.0000   1.8096   1.0000
 P, BAR            120.00   66.315   120.00
 T, K             2718.05  2405.80  2718.05
 RHO, KG/CU M    9.7522 0 6.0888 0 9.7522 0
 H, KJ/KG         -929.82 -1616.94  -929.82
 U, KJ/KG        -2160.31 -2706.08 -2160.31
 G, KJ/KG        -33539.7 -30480.6 -33539.7
 S, KJ/(KG)(K)    11.9975  11.9975  11.9975

 M, (1/n)          18.366   18.366   18.366
 Cp, KJ/(KG)(K)    2.2180   2.1819   2.2180
 GAMMAs            1.2565   1.2618   1.2565
 SON VEL,M/SEC     1243.4   1172.3   1243.4
 MACH NUMBER        0.000    1.000    0.000

 PERFORMANCE PARAMETERS

 Ae/At                      1.0000      inf
 CSTAR, M/SEC               1681.2   1681.2
 CF                         0.6973   0.0000
 Ivac, M/SEC                2101.4      inf
 Isp, M/SEC                 1172.3      0.0

 MASS FRACTIONS

 *CO             0.71700   *CO2            0.08448   *H              0.00017
 HCO             0.00003   *H2             0.03575   HCHO,formaldehy 0.00001
 HCOOH           0.00001   H2O             0.16211   *OH             0.00042

  * THERMODYNAMIC PROPERTIES FITTED TO 20000.K

 NOTE. WEIGHT FRACTION OF FUEL IN TOTAL FUELS AND OF OXIDANT IN TOTAL OXIDANTS

              THEORETICAL ROCKET PERFORMANCE ASSUMING EQUILIBRIUM

           COMPOSITION DURING EXPANSION FROM INFINITE AREA COMBUSTOR

 Pin =  1885.5 PSIA
 CASE = jlvz___________

             REACTANT                    WT FRACTION      ENERGY      TEMP
                                          (SEE NOTE)     KJ/KG-MOL      K  
 FUEL        RP-1                         1.0000000    -24717.700    298.150
 OXIDANT     O2(L)                        1.0000000    -12979.000     90.170

 O/F=    1.60000  %FUEL= 38.461538  R,EQ.RATIO= 2.128541  PHI,EQ.RATIO= 2.128541

                 CHAMBER   THROAT     EXIT
 Pinf/P            1.0000   1.8034   1.0000
 P, BAR            130.00   72.087   130.00
 T, K             2718.81  2422.33  2718.81
 RHO, KG/CU M    1.0563 1 6.5812 0 1.0563 1
 H, KJ/KG         -929.82 -1615.07  -929.82
 U, KJ/KG        -2160.57 -2710.42 -2160.57
 G, KJ/KG        -33450.4 -30589.3 -33450.4
 S, KJ/(KG)(K)    11.9613  11.9613  11.9613

 M, (1/n)          18.367   18.387   18.367
 (dLV/dLP)t      -1.00091 -1.00035 -1.00091
 (dLV/dLT)p        1.0183   1.0077   1.0183
 Cp, KJ/(KG)(K)    2.4043   2.2829   2.4043
 GAMMAs            1.2412   1.2512   1.2412
 SON VEL,M/SEC     1236.0   1170.7   1236.0
 MACH NUMBER        0.000    1.000     -nan

 PERFORMANCE PARAMETERS

 Ae/At                      1.0000     -nan
 CSTAR, M/SEC               1687.3   1687.3
 CF                         0.6938     -nan
 Ivac, M/SEC                2106.3     -nan
 Isp, M/SEC                 1170.7     -nan

 MASS FRACTIONS

 *CO              0.71701  0.71208  0.71701
 *CO2             0.08446  0.09225  0.08446
 *H               0.00017  0.00007  0.00017
 HCO              0.00003  0.00001  0.00003
 *H2              0.03575  0.03619  0.03575
 HCHO,formaldehy  0.00001  0.00001  0.00001
 HCOOH            0.00001  0.00001  0.00001
 H2O              0.16214  0.15927  0.16214
 *OH              0.00041  0.00011  0.00041

  * THERMODYNAMIC PROPERTIES FITTED TO 20000.K

 NOTE. WEIGHT FRACTION OF FUEL IN TOTAL FUELS AND OF OXIDANT IN TOTAL OXIDANTS

           THEORETICAL ROCKET PERFORMANCE ASSUMING FROZEN COMPOSITION

 Pin =  1885.5 PSIA
 CASE = jlvz___________

             REACTANT                    WT FRACTION      ENERGY      TEMP
                                          (SEE NOTE)     KJ/KG-MOL      K  
 FUEL        RP-1                         1.0000000    -24717.700    298.150
 OXIDANT     O2(L)                        1.0000000    -12979.000     90.170

 O/F=    1.60000  %FUEL= 38.461538  R,EQ.RATIO= 2.128541  PHI,EQ.RATIO= 2.128541

                 CHAMBER   THROAT     EXIT
 Pinf/P            1.0000   1.8095   1.0000
 P, BAR            130.00   71.842   130.00
 T, K             2718.81  2406.51  2718.81
 RHO, KG/CU M    1.0563 1 6.5947 0 1.0563 1
 H, KJ/KG         -929.82 -1617.08  -929.82
 U, KJ/KG        -2160.57 -2706.46 -2160.57
 G, KJ/KG        -33450.4 -30402.1 -33450.4
 S, KJ/(KG)(K)    11.9613  11.9613  11.9613

 M, (1/n)          18.367   18.367   18.367
 Cp, KJ/(KG)(K)    2.2180   2.1820   2.2180
 GAMMAs            1.2564   1.2618   1.2564
 SON VEL,M/SEC     1243.5   1172.4   1243.5
 MACH NUMBER        0.000    1.000     -nan

 PERFORMANCE PARAMETERS

 Ae/At                      1.0000     -nan
 CSTAR, M/SEC               1681.4   1681.4
 CF                         0.6973     -nan
 Ivac, M/SEC                2101.6     -nan
 Isp, M/SEC                 1172.4     -nan

 MASS FRACTIONS

 *CO             0.71701   *CO2            0.08446   *H              0.00017
 HCO             0.00003   *H2             0.03575   HCHO,formaldehy 0.00001
 HCOOH           0.00001   H2O             0.16214   *OH             0.00041

  * THERMODYNAMIC PROPERTIES FITTED TO 20000.K

 NOTE. WEIGHT FRACTION OF FUEL IN TOTAL FUELS AND OF OXIDANT IN TOTAL OXIDANTS

              THEORETICAL ROCKET PERFORMANCE ASSUMING EQUILIBRIUM

           COMPOSITION DURING EXPANSION FROM INFINITE AREA COMBUSTOR

 Pin =  2030.5 PSIA
 CASE = jlvz___________

             REACTANT                    WT FRACTION      ENERGY      TEMP
                                          (SEE NOTE)     KJ/KG-MOL      K  
 FUEL        RP-1                         1.0000000    -24717.700    298.150
 OXIDANT     O2(L)                        1.0000000    -12979.000     90.170

 O/F=    1.60000  %FUEL= 38.461538  R,EQ.RATIO= 2.128541  PHI,EQ.RATIO= 2.128541

                 CHAMBER   THROAT     EXIT
 Pinf/P            1.0000   1.8035   1.0000
 P, BAR            140.00   77.627   140.00
 T, K             2719.50  2422.53  2719.50
 RHO, KG/CU M    1.1373 1 7.0865 0 1.1373 1
 H, KJ/KG         -929.82 -1615.23  -929.82
 U, KJ/KG        -2160.81 -2710.65 -2160.81
 G, KJ/KG        -33367.3 -30510.5 -33367.3
 S, KJ/(KG)(K)    11.9278  11.9278  11.9278

 M, (1/n)          18.368   18.388   18.368
 (dLV/dLP)t      -1.00088 -1.00034 -1.00088
 (dLV/dLT)p        1.0177   1.0074   1.0177
 Cp, KJ/(KG)(K)    2.3984   2.2801   2.3984
 GAMMAs            1.2416   1.2515   1.2416
 SON VEL,M/SEC     1236.3   1170.8   1236.3
 MACH NUMBER        0.000    1.000     -nan

 PERFORMANCE PARAMETERS

 Ae/At                      1.0000     -nan
 CSTAR, M/SEC               1687.4   1687.4
 CF                         0.6939     -nan
 Ivac, M/SEC                2106.4     -nan
 Isp, M/SEC                 1170.8     -nan

 MASS FRACTIONS

 *CO              0.71701  0.71208  0.71701
 *CO2             0.08445  0.09225  0.08445
 *H               0.00016  0.00006  0.00016
 HCO              0.00003  0.00001  0.00003
 *H2              0.03575  0.03619  0.03575
 HCHO,formaldehy  0.00001  0.00001  0.00001
 HCOOH            0.00001  0.00001  0.00001
 H2O              0.16216  0.15928  0.16216
 *OH              0.00040  0.00011  0.00040

  * THERMODYNAMIC PROPERTIES FITTED TO 20000.K

 NOTE. WEIGHT FRACTION OF FUEL IN TOTAL FUELS AND OF OXIDANT IN TOTAL OXIDANTS

           THEORETICAL ROCKET PERFORMANCE ASSUMING FROZEN COMPOSITION

 Pin =  2030.5 PSIA
 CASE = jlvz___________

             REACTANT                    WT FRACTION      ENERGY      TEMP
                                          (SEE NOTE)     KJ/KG-MOL      K  
 FUEL        RP-1                         1.0000000    -24717.700    298.150
 OXIDANT     O2(L)                        1.0000000    -12979.000     90.170

 O/F=    1.60000  %FUEL= 38.461538  R,EQ.RATIO= 2.128541  PHI,EQ.RATIO= 2.128541

                 CHAMBER   THROAT     EXIT
 Pinf/P            1.0000   1.8095   1.0000
 P, BAR            140.00   77.369   140.00
 T, K             2719.50  2407.15  2719.50
 RHO, KG/CU M    1.1373 1 7.1007 0 1.1373 1
 H, KJ/KG         -929.82 -1617.20  -929.82
 U, KJ/KG        -2160.81 -2706.80 -2160.81
 G, KJ/KG        -33367.3 -30329.0 -33367.3
 S, KJ/(KG)(K)    11.9278  11.9278  11.9278

 M, (1/n)          18.368   18.368   18.368
 Cp, KJ/(KG)(K)    2.2181   2.1820   2.2181
 GAMMAs            1.2564   1.2617   1.2564
 SON VEL,M/SEC     1243.6   1172.5   1243.6
 MACH NUMBER        0.000    1.000    0.000

 PERFORMANCE PARAMETERS

 Ae/At                      1.0000 5019656.
 CSTAR, M/SEC               1681.6   1681.6
 CF                         0.6973   0.0000
 Ivac, M/SEC                2101.8*********
 Isp, M/SEC                 1172.5      0.0

 MASS FRACTIONS

 *CO             0.71701   *CO2            0.08445   *H              0.00016
 HCO             0.00003   *H2             0.03575   HCHO,formaldehy 0.00001
 HCOOH           0.00001   H2O             0.16216   *OH             0.00040

  * THERMODYNAMIC PROPERTIES FITTED TO 20000.K

 NOTE. WEIGHT FRACTION OF FUEL IN TOTAL FUELS AND OF OXIDANT IN TOTAL OXIDANTS

              THEORETICAL ROCKET PERFORMANCE ASSUMING EQUILIBRIUM

           COMPOSITION DURING EXPANSION FROM INFINITE AREA COMBUSTOR

 Pin =  2175.6 PSIA
 CASE = jlvz___________

             REACTANT                    WT FRACTION      ENERGY      TEMP
                                          (SEE NOTE)     KJ/KG-MOL      K  
 FUEL        RP-1                         1.0000000    -24717.700    298.150
 OXIDANT     O2(L)                        1.0000000    -12979.000     90.170

 O/F=    1.60000  %FUEL= 38.461538  R,EQ.RATIO= 2.128541  PHI,EQ.RATIO= 2.128541

                 CHAMBER   THROAT     EXIT
 Pinf/P            1.0000   1.8036   1.0000
 P, BAR            150.00   83.166   150.00
 T, K             2720.11  2422.70  2720.11
 RHO, KG/CU M    1.2183 1 7.5918 0 1.2183 1
 H, KJ/KG         -929.82 -1615.38  -929.82
 U, KJ/KG        -2161.02 -2710.86 -2161.02
 G, KJ/KG        -33289.7 -30437.1 -33289.7
 S, KJ/(KG)(K)    11.8965  11.8965  11.8965

 M, (1/n)          18.369   18.388   18.369
 (dLV/dLP)t      -1.00086 -1.00033 -1.00086
 (dLV/dLT)p        1.0171   1.0072   1.0171
 Cp, KJ/(KG)(K)    2.3931   2.2775   2.3931
 GAMMAs            1.2420   1.2517   1.2420
 SON VEL,M/SEC     1236.6   1171.0   1236.6
 MACH NUMBER        0.000    1.000     -nan

 PERFORMANCE PARAMETERS

 Ae/At                      1.0000     -nan
 CSTAR, M/SEC               1687.4   1687.4
 CF                         0.6940     -nan
 Ivac, M/SEC                2106.5     -nan
 Isp, M/SEC                 1171.0     -nan

 MASS FRACTIONS

 *CO              0.71702  0.71208  0.71702
 *CO2             0.08443  0.09224  0.08443
 *H               0.00016  0.00006  0.00016
 HCO              0.00003  0.00001  0.00003
 *H2              0.03576  0.03620  0.03576
 HCHO,formaldehy  0.00002  0.00001  0.00002
 HCOOH            0.00001  0.00001  0.00001
 H2O              0.16218  0.15928  0.16218
 *OH              0.00038  0.00011  0.00038

  * THERMODYNAMIC PROPERTIES FITTED TO 20000.K

 NOTE. WEIGHT FRACTION OF FUEL IN TOTAL FUELS AND OF OXIDANT IN TOTAL OXIDANTS

           THEORETICAL ROCKET PERFORMANCE ASSUMING FROZEN COMPOSITION

 Pin =  2175.6 PSIA
 CASE = jlvz___________

             REACTANT                    WT FRACTION      ENERGY      TEMP
                                          (SEE NOTE)     KJ/KG-MOL      K  
 FUEL        RP-1                         1.0000000    -24717.700    298.150
 OXIDANT     O2(L)                        1.0000000    -12979.000     90.170

 O/F=    1.60000  %FUEL= 38.461538  R,EQ.RATIO= 2.128541  PHI,EQ.RATIO= 2.128541

                 CHAMBER   THROAT     EXIT
 Pinf/P            1.0000   1.8095   1.0000
 P, BAR            150.00   82.896   150.00
 T, K             2720.11  2407.72  2720.11
 RHO, KG/CU M    1.2183 1 7.6065 0 1.2183 1
 H, KJ/KG         -929.82 -1617.32  -929.82
 U, KJ/KG        -2161.02 -2707.11 -2161.02
 G, KJ/KG        -33289.7 -30260.8 -33289.7
 S, KJ/(KG)(K)    11.8965  11.8965  11.8965

 M, (1/n)          18.369   18.369   18.369
 Cp, KJ/(KG)(K)    2.2182   2.1821   2.2182
 GAMMAs            1.2564   1.2617   1.2564
 SON VEL,M/SEC     1243.7   1172.6   1243.7
 MACH NUMBER        0.000    1.000    0.000

 PERFORMANCE PARAMETERS

 Ae/At                      1.0000      inf
 CSTAR, M/SEC               1681.7   1681.7
 CF                         0.6973   0.0000
 Ivac, M/SEC                2102.0      inf
 Isp, M/SEC                 1172.6      0.0

 MASS FRACTIONS

 *CO             0.71702   *CO2            0.08443   *H              0.00016
 HCO             0.00003   *H2             0.03576   HCHO,formaldehy 0.00002
 HCOOH           0.00001   H2O             0.16218   *OH             0.00038

  * THERMODYNAMIC PROPERTIES FITTED TO 20000.K

 NOTE. WEIGHT FRACTION OF FUEL IN TOTAL FUELS AND OF OXIDANT IN TOTAL OXIDANTS

              THEORETICAL ROCKET PERFORMANCE ASSUMING EQUILIBRIUM

           COMPOSITION DURING EXPANSION FROM INFINITE AREA COMBUSTOR

 Pin =  2320.6 PSIA
 CASE = jlvz___________

             REACTANT                    WT FRACTION      ENERGY      TEMP
                                          (SEE NOTE)     KJ/KG-MOL      K  
 FUEL        RP-1                         1.0000000    -24717.700    298.150
 OXIDANT     O2(L)                        1.0000000    -12979.000     90.170

 O/F=    1.60000  %FUEL= 38.461538  R,EQ.RATIO= 2.128541  PHI,EQ.RATIO= 2.128541

                 CHAMBER   THROAT     EXIT
 Pinf/P            1.0000   1.8037   1.0000
 P, BAR            160.00   88.705   160.00
 T, K             2720.68  2422.86  2720.68
 RHO, KG/CU M    1.2993 1 8.0971 0 1.2993 1
 H, KJ/KG         -929.82 -1615.52  -929.82
 U, KJ/KG        -2161.21 -2711.04 -2161.21
 G, KJ/KG        -33216.9 -30368.4 -33216.9
 S, KJ/(KG)(K)    11.8673  11.8673  11.8673

 M, (1/n)          18.370   18.388   18.370
 (dLV/dLP)t      -1.00084 -1.00033 -1.00084
 (dLV/dLT)p        1.0166   1.0070   1.0166
 Cp, KJ/(KG)(K)    2.3882   2.2752   2.3882
 GAMMAs            1.2423   1.2519   1.2423
 SON VEL,M/SEC     1236.8   1171.1   1236.8
 MACH NUMBER        0.000    1.000     -nan

 PERFORMANCE PARAMETERS

 Ae/At                      1.0000     -nan
 CSTAR, M/SEC               1687.4   1687.4
 CF                         0.6940     -nan
 Ivac, M/SEC                2106.6     -nan
 Isp, M/SEC                 1171.1     -nan

 MASS FRACTIONS

 *CO              0.71703  0.71209  0.71703
 *CO2             0.08442  0.09223  0.08442
 *H               0.00015  0.00006  0.00015
 HCO              0.00003  0.00001  0.00003
 *H2              0.03576  0.03620  0.03576
 HCHO,formaldehy  0.00002  0.00001  0.00002
 HCOOH            0.00001  0.00001  0.00001
 H2O              0.16220  0.15929  0.16220
 *OH              0.00037  0.00010  0.00037

  * THERMODYNAMIC PROPERTIES FITTED TO 20000.K

 NOTE. WEIGHT FRACTION OF FUEL IN TOTAL FUELS AND OF OXIDANT IN TOTAL OXIDANTS

           THEORETICAL ROCKET PERFORMANCE ASSUMING FROZEN COMPOSITION

 Pin =  2320.6 PSIA
 CASE = jlvz___________

             REACTANT                    WT FRACTION      ENERGY      TEMP
                                          (SEE NOTE)     KJ/KG-MOL      K  
 FUEL        RP-1                         1.0000000    -24717.700    298.150
 OXIDANT     O2(L)                        1.0000000    -12979.000     90.170

 O/F=    1.60000  %FUEL= 38.461538  R,EQ.RATIO= 2.128541  PHI,EQ.RATIO= 2.128541

                 CHAMBER   THROAT     EXIT
 Pinf/P            1.0000   1.8095   1.0000
 P, BAR            160.00   88.423   160.00
 T, K             2720.68  2408.24  2720.68
 RHO, KG/CU M    1.2993 1 8.1124 0 1.2993 1
 H, KJ/KG         -929.82 -1617.42  -929.82
 U, KJ/KG        -2161.21 -2707.39 -2161.21
 G, KJ/KG        -33216.9 -30196.8 -33216.9
 S, KJ/(KG)(K)    11.8673  11.8673  11.8673

 M, (1/n)          18.370   18.370   18.370
 Cp, KJ/(KG)(K)    2.2182   2.1821   2.2182
 GAMMAs            1.2563   1.2617   1.2563
 SON VEL,M/SEC     1243.8   1172.7   1243.8
 MACH NUMBER        0.000    1.000     -nan

 PERFORMANCE PARAMETERS

 Ae/At                      1.0000     -nan
 CSTAR, M/SEC               1681.9   1681.9
 CF                         0.6973     -nan
 Ivac, M/SEC                2102.2     -nan
 Isp, M/SEC                 1172.7     -nan

 MASS FRACTIONS

 *CO             0.71703   *CO2            0.08442   *H              0.00015
 HCO             0.00003   *H2             0.03576   HCHO,formaldehy 0.00002
 HCOOH           0.00001   H2O             0.16220   *OH             0.00037

  * THERMODYNAMIC PROPERTIES FITTED TO 20000.K

 NOTE. WEIGHT FRACTION OF FUEL IN TOTAL FUELS AND OF OXIDANT IN TOTAL OXIDANTS

              THEORETICAL ROCKET PERFORMANCE ASSUMING EQUILIBRIUM

           COMPOSITION DURING EXPANSION FROM INFINITE AREA COMBUSTOR

 Pin =  2465.7 PSIA
 CASE = jlvz___________

             REACTANT                    WT FRACTION      ENERGY      TEMP
                                          (SEE NOTE)     KJ/KG-MOL      K  
 FUEL        RP-1                         1.0000000    -24717.700    298.150
 OXIDANT     O2(L)                        1.0000000    -12979.000     90.170

 O/F=    1.60000  %FUEL= 38.461538  R,EQ.RATIO= 2.128541  PHI,EQ.RATIO= 2.128541

                 CHAMBER   THROAT     EXIT
 Pinf/P            1.0000   1.8038   1.0000
 P, BAR            170.00   94.244   170.00
 T, K             2721.19  2423.01  2721.19
 RHO, KG/CU M    1.3804 1 8.6023 0 1.3804 1
 H, KJ/KG         -929.82 -1615.64  -929.82
 U, KJ/KG        -2161.38 -2711.21 -2161.38
 G, KJ/KG        -33148.3 -30303.8 -33148.3
 S, KJ/(KG)(K)    11.8399  11.8399  11.8399

 M, (1/n)          18.371   18.389   18.371
 (dLV/dLP)t      -1.00082 -1.00032 -1.00082
 (dLV/dLT)p        1.0162   1.0068   1.0162
 Cp, KJ/(KG)(K)    2.3838   2.2732   2.3838
 GAMMAs            1.2426   1.2520   1.2426
 SON VEL,M/SEC     1237.1   1171.2   1237.1
 MACH NUMBER        0.000    1.000     -nan

 PERFORMANCE PARAMETERS

 Ae/At                      1.0000     -nan
 CSTAR, M/SEC               1687.4   1687.4
 CF                         0.6941     -nan
 Ivac, M/SEC                2106.6     -nan
 Isp, M/SEC                 1171.2     -nan

 MASS FRACTIONS

 *CO              0.71703  0.71209  0.71703
 *CO2             0.08440  0.09223  0.08440
 *H               0.00015  0.00006  0.00015
 HCO              0.00004  0.00001  0.00004
 *H2              0.03576  0.03620  0.03576
 HCHO,formaldehy  0.00002  0.00001  0.00002
 HCOOH            0.00001  0.00001  0.00001
 H2O              0.16221  0.15930  0.16221
 *OH              0.00036  0.00010  0.00036

  * THERMODYNAMIC PROPERTIES FITTED TO 20000.K

 NOTE. WEIGHT FRACTION OF FUEL IN TOTAL FUELS AND OF OXIDANT IN TOTAL OXIDANTS

           THEORETICAL ROCKET PERFORMANCE ASSUMING FROZEN COMPOSITION

 Pin =  2465.7 PSIA
 CASE = jlvz___________

             REACTANT                    WT FRACTION      ENERGY      TEMP
                                          (SEE NOTE)     KJ/KG-MOL      K  
 FUEL        RP-1                         1.0000000    -24717.700    298.150
 OXIDANT     O2(L)                        1.0000000    -12979.000     90.170

 O/F=    1.60000  %FUEL= 38.461538  R,EQ.RATIO= 2.128541  PHI,EQ.RATIO= 2.128541

                 CHAMBER   THROAT     EXIT
 Pinf/P            1.0000   1.8095   1.0000
 P, BAR            170.00   93.950   170.00
 T, K             2721.19  2408.72  2721.19
 RHO, KG/CU M    1.3804 1 8.6182 0 1.3804 1
 H, KJ/KG         -929.82 -1617.51  -929.82
 U, KJ/KG        -2161.38 -2707.65 -2161.38
 G, KJ/KG        -33148.3 -30136.4 -33148.3
 S, KJ/(KG)(K)    11.8399  11.8399  11.8399

 M, (1/n)          18.371   18.371   18.371
 Cp, KJ/(KG)(K)    2.2182   2.1822   2.2182
 GAMMAs            1.2563   1.2617   1.2563
 SON VEL,M/SEC     1243.9   1172.8   1243.9
 MACH NUMBER        0.000    1.000    0.000

 PERFORMANCE PARAMETERS

 Ae/At                      1.0000 6605203.
 CSTAR, M/SEC               1682.0   1682.0
 CF                         0.6972   0.0000
 Ivac, M/SEC                2102.3*********
 Isp, M/SEC                 1172.8      0.0

 MASS FRACTIONS

 *CO             0.71703   *CO2            0.08440   *H              0.00015
 HCO             0.00004   *H2             0.03576   HCHO,formaldehy 0.00002
 HCOOH           0.00001   H2O             0.16221   *OH             0.00036

  * THERMODYNAMIC PROPERTIES FITTED TO 20000.K

 NOTE. WEIGHT FRACTION OF FUEL IN TOTAL FUELS AND OF OXIDANT IN TOTAL OXIDANTS

              THEORETICAL ROCKET PERFORMANCE ASSUMING EQUILIBRIUM

           COMPOSITION DURING EXPANSION FROM INFINITE AREA COMBUSTOR

 Pin =   870.2 PSIA
 CASE = jlvz___________

             REACTANT                    WT FRACTION      ENERGY      TEMP
                                          (SEE NOTE)     KJ/KG-MOL      K  
 FUEL        RP-1                         1.0000000    -24717.700    298.150
 OXIDANT     O2(L)                        1.0000000    -12979.000     90.170

 O/F=    1.80000  %FUEL= 35.714286  R,EQ.RATIO= 1.892037  PHI,EQ.RATIO= 1.892037

                 CHAMBER   THROAT     EXIT
 Pinf/P            1.0000   1.7810   1.0000
 P, BAR            60.000   33.689   60.000
 T, K             3065.78  2787.36  3065.78
 RHO, KG/CU M    4.6242 0 2.8677 0 4.6242 0
 H, KJ/KG         -892.38 -1605.56  -892.38
 U, KJ/KG        -2189.91 -2780.34 -2189.91
 G, KJ/KG        -38064.4 -35401.9 -38064.4
 S, KJ/(KG)(K)    12.1248  12.1248  12.1248

 M, (1/n)          19.645   19.728   19.645
 (dLV/dLP)t      -1.00435 -1.00222 -1.00435
 (dLV/dLT)p        1.0832   1.0460   1.0832
 Cp, KJ/(KG)(K)    2.8784   2.5820   2.8784
 GAMMAs            1.2022   1.2142   1.2022
 SON VEL,M/SEC     1248.9   1194.3   1248.9
 MACH NUMBER        0.000    1.000     -nan

 PERFORMANCE PARAMETERS

 Ae/At                      1.0000     -nan
 CSTAR, M/SEC               1751.9   1751.9
 CF                         0.6817     -nan
 Ivac, M/SEC                2178.0     -nan
 Isp, M/SEC                 1194.3     -nan

 MASS FRACTIONS

 *CO              0.63876  0.63436  0.63876
 *CO2             0.12091  0.12787  0.12091
 COOH             0.00001  0.00000  0.00001
 *H               0.00064  0.00035  0.00064
 HCO              0.00004  0.00001  0.00004
 *H2              0.02588  0.02635  0.02588
 HCOOH            0.00001  0.00000  0.00001
 H2O              0.20989  0.20942  0.20989
 *O               0.00010  0.00002  0.00010
 *OH              0.00371  0.00159  0.00371
 *O2              0.00007  0.00002  0.00007

  * THERMODYNAMIC PROPERTIES FITTED TO 20000.K

 NOTE. WEIGHT FRACTION OF FUEL IN TOTAL FUELS AND OF OXIDANT IN TOTAL OXIDANTS

           THEORETICAL ROCKET PERFORMANCE ASSUMING FROZEN COMPOSITION

 Pin =   870.2 PSIA
 CASE = jlvz___________

             REACTANT                    WT FRACTION      ENERGY      TEMP
                                          (SEE NOTE)     KJ/KG-MOL      K  
 FUEL        RP-1                         1.0000000    -24717.700    298.150
 OXIDANT     O2(L)                        1.0000000    -12979.000     90.170

 O/F=    1.80000  %FUEL= 35.714286  R,EQ.RATIO= 1.892037  PHI,EQ.RATIO= 1.892037

                 CHAMBER   THROAT     EXIT
 Pinf/P            1.0000   1.7990   1.0000
 P, BAR            60.000   33.352   60.000
 T, K             3065.78  2733.92  3065.78
 RHO, KG/CU M    4.6242 0 2.8824 0 4.6242 0
 H, KJ/KG         -892.38 -1612.40  -892.38
 U, KJ/KG        -2189.91 -2769.48 -2189.91
 G, KJ/KG        -38064.4 -34760.7 -38064.4
 S, KJ/(KG)(K)    12.1248  12.1248  12.1248

 M, (1/n)          19.645   19.645   19.645
 Cp, KJ/(KG)(K)    2.1844   2.1539   2.1844
 GAMMAs            1.2403   1.2446   1.2403
 SON VEL,M/SEC     1268.6   1200.0   1268.6
 MACH NUMBER        0.000    1.000    0.000

 PERFORMANCE PARAMETERS

 Ae/At                      1.0000      inf
 CSTAR, M/SEC               1734.6   1734.6
 CF                         0.6918   0.0000
 Ivac, M/SEC                2164.2      inf
 Isp, M/SEC                 1200.0      0.0

 MASS FRACTIONS

 *CO             0.63876   *CO2            0.12091   COOH            0.00001
 *H              0.00064   HCO             0.00004   *H2             0.02588
 HCOOH           0.00001   H2O             0.20989   *O              0.00010
 *OH             0.00371   *O2             0.00007

  * THERMODYNAMIC PROPERTIES FITTED TO 20000.K

 NOTE. WEIGHT FRACTION OF FUEL IN TOTAL FUELS AND OF OXIDANT IN TOTAL OXIDANTS

              THEORETICAL ROCKET PERFORMANCE ASSUMING EQUILIBRIUM

           COMPOSITION DURING EXPANSION FROM INFINITE AREA COMBUSTOR

 Pin =  1015.3 PSIA
 CASE = jlvz___________

             REACTANT                    WT FRACTION      ENERGY      TEMP
                                          (SEE NOTE)     KJ/KG-MOL      K  
 FUEL        RP-1                         1.0000000    -24717.700    298.150
 OXIDANT     O2(L)                        1.0000000    -12979.000     90.170

 O/F=    1.80000  %FUEL= 35.714286  R,EQ.RATIO= 1.892037  PHI,EQ.RATIO= 1.892037

                 CHAMBER   THROAT     EXIT
 Pinf/P            1.0000   1.7818   1.0000
 P, BAR            70.000   39.285   70.000
 T, K             3071.43  2789.99  3071.43
 RHO, KG/CU M    5.3876 0 3.3418 0 5.3876 0
 H, KJ/KG         -892.38 -1606.85  -892.38
 U, KJ/KG        -2191.65 -2782.40 -2191.65
 G, KJ/KG        -37932.6 -35253.0 -37932.6
 S, KJ/(KG)(K)    12.0596  12.0596  12.0596

 M, (1/n)          19.655   19.733   19.655
 (dLV/dLP)t      -1.00410 -1.00207 -1.00410
 (dLV/dLT)p        1.0781   1.0430   1.0781
 Cp, KJ/(KG)(K)    2.8360   2.5547   2.8360
 GAMMAs            1.2038   1.2156   1.2038
 SON VEL,M/SEC     1250.6   1195.4   1250.6
 MACH NUMBER        0.000    1.000     -nan

 PERFORMANCE PARAMETERS

 Ae/At                      1.0000     -nan
 CSTAR, M/SEC               1752.3   1752.3
 CF                         0.6822     -nan
 Ivac, M/SEC                2178.8     -nan
 Isp, M/SEC                 1195.4     -nan

 MASS FRACTIONS

 *CO              0.63882  0.63441  0.63882
 *CO2             0.12081  0.12779  0.12081
 COOH             0.00001  0.00000  0.00001
 *H               0.00060  0.00033  0.00060
 HCO              0.00004  0.00002  0.00004
 *H2              0.02590  0.02636  0.02590
 HCOOH            0.00001  0.00000  0.00001
 H2O              0.21016  0.20957  0.21016
 *O               0.00009  0.00002  0.00009
 *OH              0.00350  0.00149  0.00350
 *O2              0.00006  0.00001  0.00006

  * THERMODYNAMIC PROPERTIES FITTED TO 20000.K

 NOTE. WEIGHT FRACTION OF FUEL IN TOTAL FUELS AND OF OXIDANT IN TOTAL OXIDANTS

           THEORETICAL ROCKET PERFORMANCE ASSUMING FROZEN COMPOSITION

 Pin =  1015.3 PSIA
 CASE = jlvz___________

             REACTANT                    WT FRACTION      ENERGY      TEMP
                                          (SEE NOTE)     KJ/KG-MOL      K  
 FUEL        RP-1                         1.0000000    -24717.700    298.150
 OXIDANT     O2(L)                        1.0000000    -12979.000     90.170

 O/F=    1.80000  %FUEL= 35.714286  R,EQ.RATIO= 1.892037  PHI,EQ.RATIO= 1.892037

                 CHAMBER   THROAT     EXIT
 Pinf/P            1.0000   1.7989   1.0000
 P, BAR            70.000   38.913   70.000
 T, K             3071.43  2739.21  3071.43
 RHO, KG/CU M    5.3876 0 3.3583 0 5.3876 0
 H, KJ/KG         -892.38 -1613.31  -892.38
 U, KJ/KG        -2191.65 -2772.04 -2191.65
 G, KJ/KG        -37932.6 -34647.1 -37932.6
 S, KJ/(KG)(K)    12.0596  12.0596  12.0596

 M, (1/n)          19.655   19.655   19.655
 Cp, KJ/(KG)(K)    2.1848   2.1543   2.1848
 GAMMAs            1.2401   1.2443   1.2401
 SON VEL,M/SEC     1269.3   1200.8   1269.3
 MACH NUMBER        0.000    1.000    0.000

 PERFORMANCE PARAMETERS

 Ae/At                      1.0000      inf
 CSTAR, M/SEC               1735.9   1735.9
 CF                         0.6917   0.0000
 Ivac, M/SEC                2165.8      inf
 Isp, M/SEC                 1200.8      0.0

 MASS FRACTIONS

 *CO             0.63882   *CO2            0.12081   COOH            0.00001
 *H              0.00060   HCO             0.00004   *H2             0.02590
 HCOOH           0.00001   H2O             0.21016   *O              0.00009
 *OH             0.00350   *O2             0.00006

  * THERMODYNAMIC PROPERTIES FITTED TO 20000.K

 NOTE. WEIGHT FRACTION OF FUEL IN TOTAL FUELS AND OF OXIDANT IN TOTAL OXIDANTS

              THEORETICAL ROCKET PERFORMANCE ASSUMING EQUILIBRIUM

           COMPOSITION DURING EXPANSION FROM INFINITE AREA COMBUSTOR

 Pin =  1160.3 PSIA
 CASE = jlvz___________

             REACTANT                    WT FRACTION      ENERGY      TEMP
                                          (SEE NOTE)     KJ/KG-MOL      K  
 FUEL        RP-1                         1.0000000    -24717.700    298.150
 OXIDANT     O2(L)                        1.0000000    -12979.000     90.170

 O/F=    1.80000  %FUEL= 35.714286  R,EQ.RATIO= 1.892037  PHI,EQ.RATIO= 1.892037

                 CHAMBER   THROAT     EXIT
 Pinf/P            1.0000   1.7825   1.0000
 P, BAR            80.000   44.880   80.000
 T, K             3076.11  2792.13  3076.11
 RHO, KG/CU M    6.1505 0 3.8157 0 6.1505 0
 H, KJ/KG         -892.38 -1607.92  -892.38
 U, KJ/KG        -2193.09 -2784.10 -2193.09
 G, KJ/KG        -37815.3 -35122.2 -37815.3
 S, KJ/(KG)(K)    12.0031  12.0031  12.0031

 M, (1/n)          19.663   19.738   19.663
 (dLV/dLP)t      -1.00389 -1.00195 -1.00389
 (dLV/dLT)p        1.0740   1.0405   1.0740
 Cp, KJ/(KG)(K)    2.8012   2.5324   2.8012
 GAMMAs            1.2051   1.2167   1.2051
 SON VEL,M/SEC     1252.0   1196.3   1252.0
 MACH NUMBER        0.000    1.000    0.000

 PERFORMANCE PARAMETERS

 Ae/At                      1.0000 5942698.
 CSTAR, M/SEC               1752.6   1752.6
 CF                         0.6826   0.0000
 Ivac, M/SEC                2179.5*********
 Isp, M/SEC                 1196.3      0.0

 MASS FRACTIONS

 *CO              0.63887  0.63444  0.63887
 *CO2             0.12073  0.12773  0.12073
 COOH             0.00001  0.00000  0.00001
 *H               0.00057  0.00031  0.00057
 HCO              0.00004  0.00002  0.00004
 *H2              0.02591  0.02637  0.02591
 HCHO,formaldehy  0.00001  0.00000  0.00001
 HCOOH            0.00001  0.00000  0.00001
 H2O              0.21039  0.20968  0.21039
 *O               0.00008  0.00002  0.00008
 *OH              0.00334  0.00141  0.00334
 *O2              0.00006  0.00001  0.00006

  * THERMODYNAMIC PROPERTIES FITTED TO 20000.K

 NOTE. WEIGHT FRACTION OF FUEL IN TOTAL FUELS AND OF OXIDANT IN TOTAL OXIDANTS

           THEORETICAL ROCKET PERFORMANCE ASSUMING FROZEN COMPOSITION

 Pin =  1160.3 PSIA
 CASE = jlvz___________

             REACTANT                    WT FRACTION      ENERGY      TEMP
                                          (SEE NOTE)     KJ/KG-MOL      K  
 FUEL        RP-1                         1.0000000    -24717.700    298.150
 OXIDANT     O2(L)                        1.0000000    -12979.000     90.170

 O/F=    1.80000  %FUEL= 35.714286  R,EQ.RATIO= 1.892037  PHI,EQ.RATIO= 1.892037

                 CHAMBER   THROAT     EXIT
 Pinf/P            1.0000   1.7988   1.0000
 P, BAR            80.000   44.475   80.000
 T, K             3076.11  2743.60  3076.11
 RHO, KG/CU M    6.1505 0 3.8337 0 6.1505 0
 H, KJ/KG         -892.38 -1614.06  -892.38
 U, KJ/KG        -2193.09 -2774.16 -2193.09
 G, KJ/KG        -37815.3 -34545.8 -37815.3
 S, KJ/(KG)(K)    12.0031  12.0031  12.0031

 M, (1/n)          19.663   19.663   19.663
 Cp, KJ/(KG)(K)    2.1851   2.1547   2.1851
 GAMMAs            1.2399   1.2442   1.2399
 SON VEL,M/SEC     1270.0   1201.4   1270.0
 MACH NUMBER        0.000    1.000    0.000

 PERFORMANCE PARAMETERS

 Ae/At                      1.0000      inf
 CSTAR, M/SEC               1736.9   1736.9
 CF                         0.6917   0.0000
 Ivac, M/SEC                2167.0      inf
 Isp, M/SEC                 1201.4      0.0

 MASS FRACTIONS

 *CO             0.63887   *CO2            0.12073   COOH            0.00001
 *H              0.00057   HCO             0.00004   *H2             0.02591
 HCHO,formaldehy 0.00001   HCOOH           0.00001   H2O             0.21039
 *O              0.00008   *OH             0.00334   *O2             0.00006

  * THERMODYNAMIC PROPERTIES FITTED TO 20000.K

 NOTE. WEIGHT FRACTION OF FUEL IN TOTAL FUELS AND OF OXIDANT IN TOTAL OXIDANTS

              THEORETICAL ROCKET PERFORMANCE ASSUMING EQUILIBRIUM

           COMPOSITION DURING EXPANSION FROM INFINITE AREA COMBUSTOR

 Pin =  1305.3 PSIA
 CASE = jlvz___________

             REACTANT                    WT FRACTION      ENERGY      TEMP
                                          (SEE NOTE)     KJ/KG-MOL      K  
 FUEL        RP-1                         1.0000000    -24717.700    298.150
 OXIDANT     O2(L)                        1.0000000    -12979.000     90.170

 O/F=    1.80000  %FUEL= 35.714286  R,EQ.RATIO= 1.892037  PHI,EQ.RATIO= 1.892037

                 CHAMBER   THROAT     EXIT
 Pinf/P            1.0000   1.7831   1.0000
 P, BAR            90.000   50.473   90.000
 T, K             3080.08  2793.93  3080.08
 RHO, KG/CU M    6.9128 0 4.2893 0 6.9128 0
 H, KJ/KG         -892.38 -1608.82  -892.38
 U, KJ/KG        -2194.30 -2785.53 -2194.30
 G, KJ/KG        -37709.6 -35005.6 -37709.6
 S, KJ/(KG)(K)    11.9533  11.9533  11.9533

 M, (1/n)          19.670   19.742   19.670
 (dLV/dLP)t      -1.00371 -1.00186 -1.00371
 (dLV/dLT)p        1.0705   1.0384   1.0705
 Cp, KJ/(KG)(K)    2.7719   2.5137   2.7719
 GAMMAs            1.2063   1.2177   1.2063
 SON VEL,M/SEC     1253.2   1197.0   1253.2
 MACH NUMBER        0.000    1.000     -nan

 PERFORMANCE PARAMETERS

 Ae/At                      1.0000     -nan
 CSTAR, M/SEC               1752.8   1752.8
 CF                         0.6829     -nan
 Ivac, M/SEC                2180.0     -nan
 Isp, M/SEC                 1197.0     -nan

 MASS FRACTIONS

 *CO              0.63890  0.63448  0.63890
 *CO2             0.12066  0.12767  0.12066
 COOH             0.00001  0.00000  0.00001
 *H               0.00055  0.00029  0.00055
 HCO              0.00004  0.00002  0.00004
 *H2              0.02592  0.02638  0.02592
 HCHO,formaldehy  0.00001  0.00000  0.00001
 HCOOH            0.00001  0.00000  0.00001
 H2O              0.21058  0.20978  0.21058
 *O               0.00007  0.00002  0.00007
 *OH              0.00319  0.00134  0.00319
 *O2              0.00005  0.00001  0.00005

  * THERMODYNAMIC PROPERTIES FITTED TO 20000.K

 NOTE. WEIGHT FRACTION OF FUEL IN TOTAL FUELS AND OF OXIDANT IN TOTAL OXIDANTS

           THEORETICAL ROCKET PERFORMANCE ASSUMING FROZEN COMPOSITION

 Pin =  1305.3 PSIA
 CASE = jlvz___________

             REACTANT                    WT FRACTION      ENERGY      TEMP
                                          (SEE NOTE)     KJ/KG-MOL      K  
 FUEL        RP-1                         1.0000000    -24717.700    298.150
 OXIDANT     O2(L)                        1.0000000    -12979.000     90.170

 O/F=    1.80000  %FUEL= 35.714286  R,EQ.RATIO= 1.892037  PHI,EQ.RATIO= 1.892037

                 CHAMBER   THROAT     EXIT
 Pinf/P            1.0000   1.7987   1.0000
 P, BAR            90.000   50.037   90.000
 T, K             3080.08  2747.32  3080.08
 RHO, KG/CU M    6.9128 0 4.3088 0 6.9128 0
 H, KJ/KG         -892.38 -1614.69  -892.38
 U, KJ/KG        -2194.30 -2775.96 -2194.30
 G, KJ/KG        -37709.6 -34454.4 -37709.6
 S, KJ/(KG)(K)    11.9533  11.9533  11.9533

 M, (1/n)          19.670   19.670   19.670
 Cp, KJ/(KG)(K)    2.1854   2.1550   2.1854
 GAMMAs            1.2398   1.2440   1.2398
 SON VEL,M/SEC     1270.5   1201.9   1270.5
 MACH NUMBER        0.000    1.000    0.000

 PERFORMANCE PARAMETERS

 Ae/At                      1.0000      inf
 CSTAR, M/SEC               1737.8   1737.8
 CF                         0.6916   0.0000
 Ivac, M/SEC                2168.1      inf
 Isp, M/SEC                 1201.9      0.0

 MASS FRACTIONS

 *CO             0.63890   *CO2            0.12066   COOH            0.00001
 *H              0.00055   HCO             0.00004   *H2             0.02592
 HCHO,formaldehy 0.00001   HCOOH           0.00001   H2O             0.21058
 *O              0.00007   *OH             0.00319   *O2             0.00005

  * THERMODYNAMIC PROPERTIES FITTED TO 20000.K

 NOTE. WEIGHT FRACTION OF FUEL IN TOTAL FUELS AND OF OXIDANT IN TOTAL OXIDANTS

              THEORETICAL ROCKET PERFORMANCE ASSUMING EQUILIBRIUM

           COMPOSITION DURING EXPANSION FROM INFINITE AREA COMBUSTOR

 Pin =  1450.4 PSIA
 CASE = jlvz___________

             REACTANT                    WT FRACTION      ENERGY      TEMP
                                          (SEE NOTE)     KJ/KG-MOL      K  
 FUEL        RP-1                         1.0000000    -24717.700    298.150
 OXIDANT     O2(L)                        1.0000000    -12979.000     90.170

 O/F=    1.80000  %FUEL= 35.714286  R,EQ.RATIO= 1.892037  PHI,EQ.RATIO= 1.892037

                 CHAMBER   THROAT     EXIT
 Pinf/P            1.0000   1.7837   1.0000
 P, BAR            100.00   56.065   100.00
 T, K             3083.51  2795.47  3083.51
 RHO, KG/CU M    7.6747 0 4.7628 0 7.6747 0
 H, KJ/KG         -892.38 -1609.60  -892.38
 U, KJ/KG        -2195.35 -2786.75 -2195.35
 G, KJ/KG        -37613.3 -34900.3 -37613.3
 S, KJ/(KG)(K)    11.9088  11.9088  11.9088

 M, (1/n)          19.676   19.745   19.676
 (dLV/dLP)t      -1.00356 -1.00177 -1.00356
 (dLV/dLT)p        1.0674   1.0366   1.0674
 Cp, KJ/(KG)(K)    2.7467   2.4977   2.7467
 GAMMAs            1.2073   1.2186   1.2073
 SON VEL,M/SEC     1254.3   1197.7   1254.3
 MACH NUMBER        0.000    1.000     -nan

 PERFORMANCE PARAMETERS

 Ae/At                      1.0000     -nan
 CSTAR, M/SEC               1753.1   1753.1
 CF                         0.6832     -nan
 Ivac, M/SEC                2180.5     -nan
 Isp, M/SEC                 1197.7     -nan

 MASS FRACTIONS

 *CO              0.63894  0.63450  0.63894
 *CO2             0.12060  0.12763  0.12060
 COOH             0.00001  0.00000  0.00001
 *H               0.00052  0.00028  0.00052
 HCO              0.00005  0.00002  0.00005
 *H2              0.02594  0.02638  0.02594
 HCHO,formaldehy  0.00001  0.00000  0.00001
 HCOOH            0.00001  0.00001  0.00001
 H2O              0.21075  0.20987  0.21075
 *O               0.00007  0.00001  0.00007
 *OH              0.00307  0.00128  0.00307
 *O2              0.00005  0.00001  0.00005

  * THERMODYNAMIC PROPERTIES FITTED TO 20000.K

 NOTE. WEIGHT FRACTION OF FUEL IN TOTAL FUELS AND OF OXIDANT IN TOTAL OXIDANTS

           THEORETICAL ROCKET PERFORMANCE ASSUMING FROZEN COMPOSITION

 Pin =  1450.4 PSIA
 CASE = jlvz___________

             REACTANT                    WT FRACTION      ENERGY      TEMP
                                          (SEE NOTE)     KJ/KG-MOL      K  
 FUEL        RP-1                         1.0000000    -24717.700    298.150
 OXIDANT     O2(L)                        1.0000000    -12979.000     90.170

 O/F=    1.80000  %FUEL= 35.714286  R,EQ.RATIO= 1.892037  PHI,EQ.RATIO= 1.892037

                 CHAMBER   THROAT     EXIT
 Pinf/P            1.0000   1.7986   1.0000
 P, BAR            100.00   55.598   100.00
 T, K             3083.51  2750.53  3083.51
 RHO, KG/CU M    7.6747 0 4.7836 0 7.6747 0
 H, KJ/KG         -892.38 -1615.26  -892.38
 U, KJ/KG        -2195.35 -2777.53 -2195.35
 G, KJ/KG        -37613.3 -34370.8 -37613.3
 S, KJ/(KG)(K)    11.9088  11.9088  11.9088

 M, (1/n)          19.676   19.676   19.676
 Cp, KJ/(KG)(K)    2.1856   2.1553   2.1856
 GAMMAs            1.2397   1.2439   1.2397
 SON VEL,M/SEC     1270.9   1202.4   1270.9
 MACH NUMBER        0.000    1.000    0.000

 PERFORMANCE PARAMETERS

 Ae/At                      1.0000      inf
 CSTAR, M/SEC               1738.6   1738.6
 CF                         0.6916   0.0000
 Ivac, M/SEC                2169.0      inf
 Isp, M/SEC                 1202.4      0.0

 MASS FRACTIONS

 *CO             0.63894   *CO2            0.12060   COOH            0.00001
 *H              0.00052   HCO             0.00005   *H2             0.02594
 HCHO,formaldehy 0.00001   HCOOH           0.00001   H2O             0.21075
 *O              0.00007   *OH             0.00307   *O2             0.00005

  * THERMODYNAMIC PROPERTIES FITTED TO 20000.K

 NOTE. WEIGHT FRACTION OF FUEL IN TOTAL FUELS AND OF OXIDANT IN TOTAL OXIDANTS

              THEORETICAL ROCKET PERFORMANCE ASSUMING EQUILIBRIUM

           COMPOSITION DURING EXPANSION FROM INFINITE AREA COMBUSTOR

 Pin =  1595.4 PSIA
 CASE = jlvz___________

             REACTANT                    WT FRACTION      ENERGY      TEMP
                                          (SEE NOTE)     KJ/KG-MOL      K  
 FUEL        RP-1                         1.0000000    -24717.700    298.150
 OXIDANT     O2(L)                        1.0000000    -12979.000     90.170

 O/F=    1.80000  %FUEL= 35.714286  R,EQ.RATIO= 1.892037  PHI,EQ.RATIO= 1.892037

                 CHAMBER   THROAT     EXIT
 Pinf/P            1.0000   1.7841   1.0000
 P, BAR            110.00   61.656   110.00
 T, K             3086.51  2796.80  3086.51
 RHO, KG/CU M    8.4363 0 5.2360 0 8.4363 0
 H, KJ/KG         -892.38 -1610.28  -892.38
 U, KJ/KG        -2196.27 -2787.82 -2196.27
 G, KJ/KG        -37524.8 -34804.3 -37524.8
 S, KJ/(KG)(K)    11.8685  11.8685  11.8685

 M, (1/n)          19.682   19.748   19.682
 (dLV/dLP)t      -1.00342 -1.00170 -1.00342
 (dLV/dLT)p        1.0648   1.0350   1.0648
 Cp, KJ/(KG)(K)    2.7247   2.4839   2.7247
 GAMMAs            1.2083   1.2193   1.2083
 SON VEL,M/SEC     1255.2   1198.3   1255.2
 MACH NUMBER        0.000    1.000     -nan

 PERFORMANCE PARAMETERS

 Ae/At                      1.0000     -nan
 CSTAR, M/SEC               1753.3   1753.3
 CF                         0.6834     -nan
 Ivac, M/SEC                2181.0     -nan
 Isp, M/SEC                 1198.3     -nan

 MASS FRACTIONS

 *CO              0.63896  0.63453  0.63896
 *CO2             0.12055  0.12759  0.12055
 COOH             0.00001  0.00000  0.00001
 *H               0.00050  0.00027  0.00050
 HCO              0.00005  0.00002  0.00005
 *H2              0.02595  0.02639  0.02595
 HCHO,formaldehy  0.00001  0.00000  0.00001
 HCOOH            0.00001  0.00001  0.00001
 H2O              0.21089  0.20994  0.21089
 *O               0.00006  0.00001  0.00006
 *OH              0.00296  0.00123  0.00296
 *O2              0.00004  0.00001  0.00004

  * THERMODYNAMIC PROPERTIES FITTED TO 20000.K

 NOTE. WEIGHT FRACTION OF FUEL IN TOTAL FUELS AND OF OXIDANT IN TOTAL OXIDANTS

           THEORETICAL ROCKET PERFORMANCE ASSUMING FROZEN COMPOSITION

 Pin =  1595.4 PSIA
 CASE = jlvz___________

             REACTANT                    WT FRACTION      ENERGY      TEMP
                                          (SEE NOTE)     KJ/KG-MOL      K  
 FUEL        RP-1                         1.0000000    -24717.700    298.150
 OXIDANT     O2(L)                        1.0000000    -12979.000     90.170

 O/F=    1.80000  %FUEL= 35.714286  R,EQ.RATIO= 1.892037  PHI,EQ.RATIO= 1.892037

                 CHAMBER   THROAT     EXIT
 Pinf/P            1.0000   1.7986   1.0000
 P, BAR            110.00   61.160   110.00
 T, K             3086.51  2753.34  3086.51
 RHO, KG/CU M    8.4363 0 5.2582 0 8.4363 0
 H, KJ/KG         -892.38 -1615.74  -892.38
 U, KJ/KG        -2196.27 -2778.89 -2196.27
 G, KJ/KG        -37524.8 -34293.9 -37524.8
 S, KJ/(KG)(K)    11.8685  11.8685  11.8685

 M, (1/n)          19.682   19.682   19.682
 Cp, KJ/(KG)(K)    2.1858   2.1555   2.1858
 GAMMAs            1.2396   1.2438   1.2396
 SON VEL,M/SEC     1271.3   1202.8   1271.3
 MACH NUMBER        0.000    1.000     -nan

 PERFORMANCE PARAMETERS

 Ae/At                      1.0000     -nan
 CSTAR, M/SEC               1739.3   1739.3
 CF                         0.6916     -nan
 Ivac, M/SEC                2169.8     -nan
 Isp, M/SEC                 1202.8     -nan

 MASS FRACTIONS

 *CO             0.63896   *CO2            0.12055   COOH            0.00001
 *H              0.00050   HCO             0.00005   *H2             0.02595
 HCHO,formaldehy 0.00001   HCOOH           0.00001   H2O             0.21089
 *O              0.00006   *OH             0.00296   *O2             0.00004

  * THERMODYNAMIC PROPERTIES FITTED TO 20000.K

 NOTE. WEIGHT FRACTION OF FUEL IN TOTAL FUELS AND OF OXIDANT IN TOTAL OXIDANTS

              THEORETICAL ROCKET PERFORMANCE ASSUMING EQUILIBRIUM

           COMPOSITION DURING EXPANSION FROM INFINITE AREA COMBUSTOR

 Pin =  1740.5 PSIA
 CASE = jlvz___________

             REACTANT                    WT FRACTION      ENERGY      TEMP
                                          (SEE NOTE)     KJ/KG-MOL      K  
 FUEL        RP-1                         1.0000000    -24717.700    298.150
 OXIDANT     O2(L)                        1.0000000    -12979.000     90.170

 O/F=    1.80000  %FUEL= 35.714286  R,EQ.RATIO= 1.892037  PHI,EQ.RATIO= 1.892037

                 CHAMBER   THROAT     EXIT
 Pinf/P            1.0000   1.7845   1.0000
 P, BAR            120.00   67.246   120.00
 T, K             3089.17  2797.98  3089.17
 RHO, KG/CU M    9.1975 0 5.7091 0 9.1975 0
 H, KJ/KG         -892.38 -1610.89  -892.38
 U, KJ/KG        -2197.09 -2788.76 -2197.09
 G, KJ/KG        -37442.8 -34715.9 -37442.8
 S, KJ/(KG)(K)    11.8318  11.8318  11.8318

 M, (1/n)          19.686   19.751   19.686
 (dLV/dLP)t      -1.00330 -1.00163 -1.00330
 (dLV/dLT)p        1.0624   1.0337   1.0624
 Cp, KJ/(KG)(K)    2.7053   2.4718   2.7053
 GAMMAs            1.2091   1.2200   1.2091
 SON VEL,M/SEC     1256.0   1198.8   1256.0
 MACH NUMBER        0.000    1.000     -nan

 PERFORMANCE PARAMETERS

 Ae/At                      1.0000     -nan
 CSTAR, M/SEC               1753.4   1753.4
 CF                         0.6837     -nan
 Ivac, M/SEC                2181.3     -nan
 Isp, M/SEC                 1198.8     -nan

 MASS FRACTIONS

 *CO              0.63899  0.63455  0.63899
 *CO2             0.12051  0.12755  0.12051
 COOH             0.00001  0.00001  0.00001
 *H               0.00049  0.00026  0.00049
 HCO              0.00005  0.00002  0.00005
 *H2              0.02595  0.02640  0.02595
 HCHO,formaldehy  0.00001  0.00000  0.00001
 HCOOH            0.00001  0.00001  0.00001
 H2O              0.21102  0.21000  0.21102
 *O               0.00006  0.00001  0.00006
 *OH              0.00286  0.00118  0.00286
 *O2              0.00004  0.00001  0.00004

  * THERMODYNAMIC PROPERTIES FITTED TO 20000.K

 NOTE. WEIGHT FRACTION OF FUEL IN TOTAL FUELS AND OF OXIDANT IN TOTAL OXIDANTS

           THEORETICAL ROCKET PERFORMANCE ASSUMING FROZEN COMPOSITION

 Pin =  1740.5 PSIA
 CASE = jlvz___________

             REACTANT                    WT FRACTION      ENERGY      TEMP
                                          (SEE NOTE)     KJ/KG-MOL      K  
 FUEL        RP-1                         1.0000000    -24717.700    298.150
 OXIDANT     O2(L)                        1.0000000    -12979.000     90.170

 O/F=    1.80000  %FUEL= 35.714286  R,EQ.RATIO= 1.892037  PHI,EQ.RATIO= 1.892037

                 CHAMBER   THROAT     EXIT
 Pinf/P            1.0000   1.7985   1.0000
 P, BAR            120.00   66.723   120.00
 T, K             3089.17  2755.84  3089.17
 RHO, KG/CU M    9.1975 0 5.7326 0 9.1975 0
 H, KJ/KG         -892.38 -1616.16  -892.38
 U, KJ/KG        -2197.09 -2780.09 -2197.09
 G, KJ/KG        -37442.8 -34222.6 -37442.8
 S, KJ/(KG)(K)    11.8318  11.8318  11.8318

 M, (1/n)          19.686   19.686   19.686
 Cp, KJ/(KG)(K)    2.1860   2.1557   2.1860
 GAMMAs            1.2395   1.2437   1.2395
 SON VEL,M/SEC     1271.7   1203.1   1271.7
 MACH NUMBER        0.000    1.000     -nan

 PERFORMANCE PARAMETERS

 Ae/At                      1.0000     -nan
 CSTAR, M/SEC               1739.9   1739.9
 CF                         0.6915     -nan
 Ivac, M/SEC                2170.5     -nan
 Isp, M/SEC                 1203.2     -nan

 MASS FRACTIONS

 *CO             0.63899   *CO2            0.12051   COOH            0.00001
 *H              0.00049   HCO             0.00005   *H2             0.02595
 HCHO,formaldehy 0.00001   HCOOH           0.00001   H2O             0.21102
 *O              0.00006   *OH             0.00286   *O2             0.00004

  * THERMODYNAMIC PROPERTIES FITTED TO 20000.K

 NOTE. WEIGHT FRACTION OF FUEL IN TOTAL FUELS AND OF OXIDANT IN TOTAL OXIDANTS

              THEORETICAL ROCKET PERFORMANCE ASSUMING EQUILIBRIUM

           COMPOSITION DURING EXPANSION FROM INFINITE AREA COMBUSTOR

 Pin =  1885.5 PSIA
 CASE = jlvz___________

             REACTANT                    WT FRACTION      ENERGY      TEMP
                                          (SEE NOTE)     KJ/KG-MOL      K  
 FUEL        RP-1                         1.0000000    -24717.700    298.150
 OXIDANT     O2(L)                        1.0000000    -12979.000     90.170

 O/F=    1.80000  %FUEL= 35.714286  R,EQ.RATIO= 1.892037  PHI,EQ.RATIO= 1.892037

                 CHAMBER   THROAT     EXIT
 Pinf/P            1.0000   1.7849   1.0000
 P, BAR            130.00   72.835   130.00
 T, K             3091.55  2799.02  3091.55
 RHO, KG/CU M    9.9584 0 6.1820 0 9.9584 0
 H, KJ/KG         -892.38 -1611.42  -892.38
 U, KJ/KG        -2197.81 -2789.60 -2197.81
 G, KJ/KG        -37366.4 -34634.2 -37366.4
 S, KJ/(KG)(K)    11.7980  11.7980  11.7980

 M, (1/n)          19.691   19.753   19.691
 (dLV/dLP)t      -1.00320 -1.00158 -1.00320
 (dLV/dLT)p        1.0604   1.0324   1.0604
 Cp, KJ/(KG)(K)    2.6881   2.4610   2.6881
 GAMMAs            1.2098   1.2206   1.2098
 SON VEL,M/SEC     1256.7   1199.2   1256.7
 MACH NUMBER        0.000    1.000     -nan

 PERFORMANCE PARAMETERS

 Ae/At                      1.0000     -nan
 CSTAR, M/SEC               1753.6   1753.6
 CF                         0.6839     -nan
 Ivac, M/SEC                2181.7     -nan
 Isp, M/SEC                 1199.2     -nan

 MASS FRACTIONS

 *CO              0.63901  0.63456  0.63901
 *CO2             0.12047  0.12752  0.12047
 COOH             0.00001  0.00001  0.00001
 *H               0.00047  0.00025  0.00047
 HCO              0.00005  0.00002  0.00005
 *H2              0.02596  0.02640  0.02596
 HCHO,formaldehy  0.00001  0.00001  0.00001
 HCOOH            0.00001  0.00001  0.00001
 H2O              0.21114  0.21006  0.21114
 *O               0.00005  0.00001  0.00005
 *OH              0.00277  0.00114  0.00277
 *O2              0.00004  0.00001  0.00004

  * THERMODYNAMIC PROPERTIES FITTED TO 20000.K

 NOTE. WEIGHT FRACTION OF FUEL IN TOTAL FUELS AND OF OXIDANT IN TOTAL OXIDANTS

           THEORETICAL ROCKET PERFORMANCE ASSUMING FROZEN COMPOSITION

 Pin =  1885.5 PSIA
 CASE = jlvz___________

             REACTANT                    WT FRACTION      ENERGY      TEMP
                                          (SEE NOTE)     KJ/KG-MOL      K  
 FUEL        RP-1                         1.0000000    -24717.700    298.150
 OXIDANT     O2(L)                        1.0000000    -12979.000     90.170

 O/F=    1.80000  %FUEL= 35.714286  R,EQ.RATIO= 1.892037  PHI,EQ.RATIO= 1.892037

                 CHAMBER   THROAT     EXIT
 Pinf/P            1.0000   1.7984   1.0000
 P, BAR            130.00   72.285   130.00
 T, K             3091.55  2758.07  3091.55
 RHO, KG/CU M    9.9584 0 6.2068 0 9.9584 0
 H, KJ/KG         -892.38 -1616.54  -892.38
 U, KJ/KG        -2197.81 -2781.16 -2197.81
 G, KJ/KG        -37366.4 -34156.2 -37366.4
 S, KJ/(KG)(K)    11.7980  11.7980  11.7980

 M, (1/n)          19.691   19.691   19.691
 Cp, KJ/(KG)(K)    2.1862   2.1559   2.1862
 GAMMAs            1.2394   1.2436   1.2394
 SON VEL,M/SEC     1272.0   1203.4   1272.0
 MACH NUMBER        0.000    1.000    0.000

 PERFORMANCE PARAMETERS

 Ae/At                      1.0000 4761826.
 CSTAR, M/SEC               1740.4   1740.4
 CF                         0.6915   0.0000
 Ivac, M/SEC                2171.2*********
 Isp, M/SEC                 1203.5      0.0

 MASS FRACTIONS

 *CO             0.63901   *CO2            0.12047   COOH            0.00001
 *H              0.00047   HCO             0.00005   *H2             0.02596
 HCHO,formaldehy 0.00001   HCOOH           0.00001   H2O             0.21114
 *O              0.00005   *OH             0.00277   *O2             0.00004

  * THERMODYNAMIC PROPERTIES FITTED TO 20000.K

 NOTE. WEIGHT FRACTION OF FUEL IN TOTAL FUELS AND OF OXIDANT IN TOTAL OXIDANTS

              THEORETICAL ROCKET PERFORMANCE ASSUMING EQUILIBRIUM

           COMPOSITION DURING EXPANSION FROM INFINITE AREA COMBUSTOR

 Pin =  2030.5 PSIA
 CASE = jlvz___________

             REACTANT                    WT FRACTION      ENERGY      TEMP
                                          (SEE NOTE)     KJ/KG-MOL      K  
 FUEL        RP-1                         1.0000000    -24717.700    298.150
 OXIDANT     O2(L)                        1.0000000    -12979.000     90.170

 O/F=    1.80000  %FUEL= 35.714286  R,EQ.RATIO= 1.892037  PHI,EQ.RATIO= 1.892037

                 CHAMBER   THROAT     EXIT
 Pinf/P            1.0000   1.7852   1.0000
 P, BAR            140.00   78.424   140.00
 T, K             3093.69  2799.95  3093.69
 RHO, KG/CU M    1.0719 1 6.6548 0 1.0719 1
 H, KJ/KG         -892.38 -1611.91  -892.38
 U, KJ/KG        -2198.47 -2790.36 -2198.47
 G, KJ/KG        -37294.9 -34558.1 -37294.9
 S, KJ/(KG)(K)    11.7667  11.7667  11.7667

 M, (1/n)          19.694   19.755   19.694
 (dLV/dLP)t      -1.00310 -1.00153 -1.00310
 (dLV/dLT)p        1.0585   1.0313   1.0585
 Cp, KJ/(KG)(K)    2.6726   2.4514   2.6726
[...]

                 CHAMBER   THROAT     EXIT
 Pinf/P            1.0000   1.7264   1.0000
 P, BAR            130.00   75.300   130.00
 T, K             3722.02  3546.15  3722.02
 RHO, KG/CU M    1.1406 1 7.0314 0 1.1406 1
 H, KJ/KG         -678.20 -1281.48  -678.20
 U, KJ/KG        -1817.97 -2352.39 -1817.97
 G, KJ/KG        -38004.0 -36843.6 -38004.0
 S, KJ/(KG)(K)    10.0284  10.0284  10.0284

 M, (1/n)          27.152   27.532   27.152
 (dLV/dLP)t      -1.04667 -1.04323 -1.04667
 (dLV/dLT)p        1.8039   1.7842   1.8039
 Cp, KJ/(KG)(K)    6.1302   6.1758   6.1302
 GAMMAs            1.1311   1.1267   1.1311
 SON VEL,M/SEC     1135.4   1098.4   1135.4
 MACH NUMBER        0.000    1.000     -nan

 PERFORMANCE PARAMETERS

 Ae/At                      1.0000     -nan
 CSTAR, M/SEC               1683.2   1683.2
 CF                         0.6526     -nan
 Ivac, M/SEC                2073.4     -nan
 Isp, M/SEC                 1098.4     -nan

 MASS FRACTIONS

 *CO              0.15282  0.13856  0.15282
 *CO2             0.38961  0.41204  0.38961
 COOH             0.00004  0.00002  0.00004
 *H               0.00046  0.00039  0.00046
 HCO              0.00001  0.00001  0.00001
 HO2              0.00070  0.00049  0.00070
 *H2              0.00162  0.00146  0.00162
 H2O              0.20132  0.20671  0.20132
 H2O2             0.00007  0.00005  0.00007
 *O               0.01675  0.01429  0.01675
 *OH              0.05904  0.05267  0.05904
 *O2              0.17757  0.17330  0.17757
 O3               0.00001  0.00000  0.00001

  * THERMODYNAMIC PROPERTIES FITTED TO 20000.K

 NOTE. WEIGHT FRACTION OF FUEL IN TOTAL FUELS AND OF OXIDANT IN TOTAL OXIDANTS

           THEORETICAL ROCKET PERFORMANCE ASSUMING FROZEN COMPOSITION

 Pin =  1885.5 PSIA
 CASE = jlvz___________

             REACTANT                    WT FRACTION      ENERGY      TEMP
                                          (SEE NOTE)     KJ/KG-MOL      K  
 FUEL        RP-1                         1.0000000    -24717.700    298.150
 OXIDANT     O2(L)                        1.0000000    -12979.000     90.170

 O/F=    4.00000  %FUEL= 20.000000  R,EQ.RATIO= 0.851417  PHI,EQ.RATIO= 0.851417

                 CHAMBER   THROAT     EXIT
 Pinf/P            1.0000   1.7726   1.0000
 P, BAR            130.00   73.337   130.00
 T, K             3722.02  3382.92  3722.02
 RHO, KG/CU M    1.1406 1 7.0793 0 1.1406 1
 H, KJ/KG         -678.20 -1300.54  -678.20
 U, KJ/KG        -1817.97 -2336.48 -1817.97
 G, KJ/KG        -38004.0 -35225.7 -38004.0
 S, KJ/(KG)(K)    10.0284  10.0284  10.0284

 M, (1/n)          27.152   27.152   27.152
 Cp, KJ/(KG)(K)    1.8443   1.8258   1.8443
 GAMMAs            1.1991   1.2015   1.1991
 SON VEL,M/SEC     1169.1   1115.7   1169.1
 MACH NUMBER        0.000    1.000    0.000

 PERFORMANCE PARAMETERS

 Ae/At                      1.0000 4438471.
 CSTAR, M/SEC               1646.0   1646.0
 CF                         0.6778   0.0000
 Ivac, M/SEC                2044.2*********
 Isp, M/SEC                 1115.7      0.0

 MASS FRACTIONS

 *CO             0.15282   *CO2            0.38961   COOH            0.00004
 *H              0.00046   HCO             0.00001   HO2             0.00070
 *H2             0.00162   H2O             0.20132   H2O2            0.00007
 *O              0.01675   *OH             0.05904   *O2             0.17757
 O3              0.00001

  * THERMODYNAMIC PROPERTIES FITTED TO 20000.K

 NOTE. WEIGHT FRACTION OF FUEL IN TOTAL FUELS AND OF OXIDANT IN TOTAL OXIDANTS

              THEORETICAL ROCKET PERFORMANCE ASSUMING EQUILIBRIUM

           COMPOSITION DURING EXPANSION FROM INFINITE AREA COMBUSTOR

 Pin =  2030.5 PSIA
 CASE = jlvz___________

             REACTANT                    WT FRACTION      ENERGY      TEMP
                                          (SEE NOTE)     KJ/KG-MOL      K  
 FUEL        RP-1                         1.0000000    -24717.700    298.150
 OXIDANT     O2(L)                        1.0000000    -12979.000     90.170

 O/F=    4.00000  %FUEL= 20.000000  R,EQ.RATIO= 0.851417  PHI,EQ.RATIO= 0.851417

                 CHAMBER   THROAT     EXIT
 Pinf/P            1.0000   1.7266   1.0000
 P, BAR            140.00   81.084   140.00
 T, K             3733.10  3556.02  3733.10
 RHO, KG/CU M    1.2260 1 7.5581 0 1.2260 1
 H, KJ/KG         -678.20 -1282.71  -678.20
 U, KJ/KG        -1820.15 -2355.51 -1820.15
 G, KJ/KG        -38030.5 -36863.2 -38030.5
 S, KJ/(KG)(K)    10.0057  10.0057  10.0057

 M, (1/n)          27.181   27.560   27.181
 (dLV/dLP)t      -1.04636 -1.04292 -1.04636
 (dLV/dLT)p        1.7963   1.7767   1.7963
 Cp, KJ/(KG)(K)    6.0748   6.1197   6.0748
 GAMMAs            1.1314   1.1270   1.1314
 SON VEL,M/SEC     1136.6   1099.6   1136.6
 MACH NUMBER        0.000    1.000     -nan

 PERFORMANCE PARAMETERS

 Ae/At                      1.0000     -nan
 CSTAR, M/SEC               1684.6   1684.6
 CF                         0.6527     -nan
 Ivac, M/SEC                2075.2     -nan
 Isp, M/SEC                 1099.6     -nan

 MASS FRACTIONS

 *CO              0.15183  0.13758  0.15183
 *CO2             0.39116  0.41357  0.39116
 COOH             0.00004  0.00003  0.00004
 *H               0.00045  0.00038  0.00045
 HCO              0.00001  0.00001  0.00001
 HO2              0.00072  0.00050  0.00072
 *H2              0.00160  0.00145  0.00160
 H2O              0.20165  0.20703  0.20165
 H2O2             0.00007  0.00005  0.00007
 *O               0.01651  0.01409  0.01651
 *OH              0.05883  0.05247  0.05883
 *O2              0.17711  0.17284  0.17711
 O3               0.00001  0.00000  0.00001

  * THERMODYNAMIC PROPERTIES FITTED TO 20000.K

 NOTE. WEIGHT FRACTION OF FUEL IN TOTAL FUELS AND OF OXIDANT IN TOTAL OXIDANTS

           THEORETICAL ROCKET PERFORMANCE ASSUMING FROZEN COMPOSITION

 Pin =  2030.5 PSIA
 CASE = jlvz___________

             REACTANT                    WT FRACTION      ENERGY      TEMP
                                          (SEE NOTE)     KJ/KG-MOL      K  
 FUEL        RP-1                         1.0000000    -24717.700    298.150
 OXIDANT     O2(L)                        1.0000000    -12979.000     90.170

 O/F=    4.00000  %FUEL= 20.000000  R,EQ.RATIO= 0.851417  PHI,EQ.RATIO= 0.851417

                 CHAMBER   THROAT     EXIT
 Pinf/P            1.0000   1.7724   1.0000
 P, BAR            140.00   78.988   140.00
 T, K             3733.10  3393.54  3733.10
 RHO, KG/CU M    1.2260 1 7.6091 0 1.2260 1
 H, KJ/KG         -678.20 -1301.64  -678.20
 U, KJ/KG        -1820.15 -2339.72 -1820.15
 G, KJ/KG        -38030.5 -35256.4 -38030.5
 S, KJ/(KG)(K)    10.0057  10.0057  10.0057

 M, (1/n)          27.181   27.181   27.181
 Cp, KJ/(KG)(K)    1.8450   1.8266   1.8450
 GAMMAs            1.1987   1.2012   1.1987
 SON VEL,M/SEC     1170.0   1116.6   1170.0
 MACH NUMBER        0.000    1.000    0.000

 PERFORMANCE PARAMETERS

 Ae/At                     1.00000      inf
 CSTAR, M/SEC               1647.7   1647.7
 CF                         0.6777   0.0000
 Ivac, M/SEC                2046.3      inf
 Isp, M/SEC                 1116.6      0.0

 MASS FRACTIONS

 *CO             0.15183   *CO2            0.39116   COOH            0.00004
 *H              0.00045   HCO             0.00001   HO2             0.00072
 *H2             0.00160   H2O             0.20165   H2O2            0.00007
 *O              0.01651   *OH             0.05883   *O2             0.17711
 O3              0.00001

  * THERMODYNAMIC PROPERTIES FITTED TO 20000.K

 NOTE. WEIGHT FRACTION OF FUEL IN TOTAL FUELS AND OF OXIDANT IN TOTAL OXIDANTS

              THEORETICAL ROCKET PERFORMANCE ASSUMING EQUILIBRIUM

           COMPOSITION DURING EXPANSION FROM INFINITE AREA COMBUSTOR

 Pin =  2175.6 PSIA
 CASE = jlvz___________

             REACTANT                    WT FRACTION      ENERGY      TEMP
                                          (SEE NOTE)     KJ/KG-MOL      K  
 FUEL        RP-1                         1.0000000    -24717.700    298.150
 OXIDANT     O2(L)                        1.0000000    -12979.000     90.170

 O/F=    4.00000  %FUEL= 20.000000  R,EQ.RATIO= 0.851417  PHI,EQ.RATIO= 0.851417

                 CHAMBER   THROAT     EXIT
 Pinf/P            1.0000   1.7268   1.0000
 P, BAR            150.00   86.866   150.00
 T, K             3743.44  3565.22  3743.44
 RHO, KG/CU M    1.3112 1 8.0840 0 1.3112 1
 H, KJ/KG         -678.20 -1283.86  -678.20
 U, KJ/KG        -1822.17 -2358.41 -1822.17
 G, KJ/KG        -38054.9 -36881.1 -38054.9
 S, KJ/(KG)(K)     9.9846   9.9846   9.9846

 M, (1/n)          27.208   27.586   27.208
 (dLV/dLP)t      -1.04607 -1.04263 -1.04607
 (dLV/dLT)p        1.7892   1.7696   1.7892
 Cp, KJ/(KG)(K)    6.0237   6.0680   6.0237
 GAMMAs            1.1317   1.1273   1.1317
 SON VEL,M/SEC     1137.8   1100.6   1137.8
 MACH NUMBER        0.000    1.000     -nan

 PERFORMANCE PARAMETERS

 Ae/At                      1.0000     -nan
 CSTAR, M/SEC               1685.9   1685.9
 CF                         0.6528     -nan
 Ivac, M/SEC                2076.9     -nan
 Isp, M/SEC                 1100.6     -nan

 MASS FRACTIONS

 *CO              0.15090  0.13667  0.15090
 *CO2             0.39261  0.41500  0.39261
 COOH             0.00005  0.00003  0.00005
 *H               0.00044  0.00038  0.00044
 HCO              0.00001  0.00001  0.00001
 HO2              0.00074  0.00052  0.00074
 *H2              0.00158  0.00143  0.00158
 H2O              0.20196  0.20732  0.20196
 H2O2             0.00008  0.00005  0.00008
 *O               0.01629  0.01389  0.01629
 *OH              0.05864  0.05229  0.05864
 *O2              0.17668  0.17241  0.17668
 O3               0.00001  0.00000  0.00001

  * THERMODYNAMIC PROPERTIES FITTED TO 20000.K

 NOTE. WEIGHT FRACTION OF FUEL IN TOTAL FUELS AND OF OXIDANT IN TOTAL OXIDANTS

           THEORETICAL ROCKET PERFORMANCE ASSUMING FROZEN COMPOSITION

 Pin =  2175.6 PSIA
 CASE = jlvz___________

             REACTANT                    WT FRACTION      ENERGY      TEMP
                                          (SEE NOTE)     KJ/KG-MOL      K  
 FUEL        RP-1                         1.0000000    -24717.700    298.150
 OXIDANT     O2(L)                        1.0000000    -12979.000     90.170

 O/F=    4.00000  %FUEL= 20.000000  R,EQ.RATIO= 0.851417  PHI,EQ.RATIO= 0.851417

                 CHAMBER   THROAT     EXIT
 Pinf/P            1.0000   1.7722   1.0000
 P, BAR            150.00   84.640   150.00
 T, K             3743.44  3403.45  3743.44
 RHO, KG/CU M    1.3112 1 8.1379 0 1.3112 1
 H, KJ/KG         -678.20 -1302.67  -678.20
 U, KJ/KG        -1822.17 -2342.74 -1822.17
 G, KJ/KG        -38054.9 -35284.7 -38054.9
 S, KJ/(KG)(K)     9.9846   9.9846   9.9846

 M, (1/n)          27.208   27.208   27.208
 Cp, KJ/(KG)(K)    1.8457   1.8273   1.8457
 GAMMAs            1.1984   1.2008   1.1984
 SON VEL,M/SEC     1170.9   1117.6   1170.9
 MACH NUMBER        0.000    1.000    0.000

 PERFORMANCE PARAMETERS

 Ae/At                      1.0000      inf
 CSTAR, M/SEC               1649.3   1649.3
 CF                         0.6776   0.0000
 Ivac, M/SEC                2048.2      inf
 Isp, M/SEC                 1117.6      0.0

 MASS FRACTIONS

 *CO             0.15090   *CO2            0.39261   COOH            0.00005
 *H              0.00044   HCO             0.00001   HO2             0.00074
 *H2             0.00158   H2O             0.20196   H2O2            0.00008
 *O              0.01629   *OH             0.05864   *O2             0.17668
 O3              0.00001

  * THERMODYNAMIC PROPERTIES FITTED TO 20000.K

 NOTE. WEIGHT FRACTION OF FUEL IN TOTAL FUELS AND OF OXIDANT IN TOTAL OXIDANTS

              THEORETICAL ROCKET PERFORMANCE ASSUMING EQUILIBRIUM

           COMPOSITION DURING EXPANSION FROM INFINITE AREA COMBUSTOR

 Pin =  2320.6 PSIA
 CASE = jlvz___________

             REACTANT                    WT FRACTION      ENERGY      TEMP
                                          (SEE NOTE)     KJ/KG-MOL      K  
 FUEL        RP-1                         1.0000000    -24717.700    298.150
 OXIDANT     O2(L)                        1.0000000    -12979.000     90.170

 O/F=    4.00000  %FUEL= 20.000000  R,EQ.RATIO= 0.851417  PHI,EQ.RATIO= 0.851417

                 CHAMBER   THROAT     EXIT
 Pinf/P            1.0000   1.7270   1.0000
 P, BAR            160.00   92.649   160.00
 T, K             3753.12  3573.83  3753.12
 RHO, KG/CU M    1.3963 1 8.6090 0 1.3963 1
 H, KJ/KG         -678.20 -1284.92  -678.20
 U, KJ/KG        -1824.05 -2361.11 -1824.05
 G, KJ/KG        -38077.6 -36897.7 -38077.6
 S, KJ/(KG)(K)     9.9649   9.9649   9.9649

 M, (1/n)          27.233   27.611   27.233
 (dLV/dLP)t      -1.04579 -1.04236 -1.04579
 (dLV/dLT)p        1.7826   1.7631   1.7826
 Cp, KJ/(KG)(K)    5.9763   6.0200   5.9763
 GAMMAs            1.1319   1.1276   1.1319
 SON VEL,M/SEC     1138.9   1101.6   1138.9
 MACH NUMBER        0.000    1.000     -nan

 PERFORMANCE PARAMETERS

 Ae/At                      1.0000     -nan
 CSTAR, M/SEC               1687.2   1687.2
 CF                         0.6529     -nan
 Ivac, M/SEC                2078.5     -nan
 Isp, M/SEC                 1101.6     -nan

 MASS FRACTIONS

 *CO              0.15003  0.13581  0.15003
 *CO2             0.39398  0.41635  0.39398
 COOH             0.00005  0.00003  0.00005
 *H               0.00043  0.00037  0.00043
 HCO              0.00001  0.00001  0.00001
 HO2              0.00076  0.00053  0.00076
 *H2              0.00157  0.00142  0.00157
 H2O              0.20225  0.20759  0.20225
 H2O2             0.00008  0.00005  0.00008
 *O               0.01609  0.01372  0.01609
 *OH              0.05846  0.05211  0.05846
 *O2              0.17628  0.17200  0.17628
 O3               0.00001  0.00000  0.00001

  * THERMODYNAMIC PROPERTIES FITTED TO 20000.K

 NOTE. WEIGHT FRACTION OF FUEL IN TOTAL FUELS AND OF OXIDANT IN TOTAL OXIDANTS

           THEORETICAL ROCKET PERFORMANCE ASSUMING FROZEN COMPOSITION

 Pin =  2320.6 PSIA
 CASE = jlvz___________

             REACTANT                    WT FRACTION      ENERGY      TEMP
                                          (SEE NOTE)     KJ/KG-MOL      K  
 FUEL        RP-1                         1.0000000    -24717.700    298.150
 OXIDANT     O2(L)                        1.0000000    -12979.000     90.170

 O/F=    4.00000  %FUEL= 20.000000  R,EQ.RATIO= 0.851417  PHI,EQ.RATIO= 0.851417

                 CHAMBER   THROAT     EXIT
 Pinf/P            1.0000   1.7720   1.0000
 P, BAR            160.00   90.292   160.00
 T, K             3753.12  3412.73  3753.12
 RHO, KG/CU M    1.3963 1 8.6658 0 1.3963 1
 H, KJ/KG         -678.20 -1303.62  -678.20
 U, KJ/KG        -1824.05 -2345.55 -1824.05
 G, KJ/KG        -38077.6 -35311.1 -38077.6
 S, KJ/(KG)(K)     9.9649   9.9649   9.9649

 M, (1/n)          27.233   27.233   27.233
 Cp, KJ/(KG)(K)    1.8463   1.8280   1.8463
 GAMMAs            1.1981   1.2005   1.1981
 SON VEL,M/SEC     1171.7   1118.4   1171.7
 MACH NUMBER        0.000    1.000     -nan

 PERFORMANCE PARAMETERS

 Ae/At                      1.0000     -nan
 CSTAR, M/SEC               1650.9   1650.9
 CF                         0.6775     -nan
 Ivac, M/SEC                2050.0     -nan
 Isp, M/SEC                 1118.4     -nan

 MASS FRACTIONS

 *CO             0.15003   *CO2            0.39398   COOH            0.00005
 *H              0.00043   HCO             0.00001   HO2             0.00076
 *H2             0.00157   H2O             0.20225   H2O2            0.00008
 *O              0.01609   *OH             0.05846   *O2             0.17628
 O3              0.00001

  * THERMODYNAMIC PROPERTIES FITTED TO 20000.K

 NOTE. WEIGHT FRACTION OF FUEL IN TOTAL FUELS AND OF OXIDANT IN TOTAL OXIDANTS

              THEORETICAL ROCKET PERFORMANCE ASSUMING EQUILIBRIUM

           COMPOSITION DURING EXPANSION FROM INFINITE AREA COMBUSTOR

 Pin =  2465.7 PSIA
 CASE = jlvz___________

             REACTANT                    WT FRACTION      ENERGY      TEMP
                                          (SEE NOTE)     KJ/KG-MOL      K  
 FUEL        RP-1                         1.0000000    -24717.700    298.150
 OXIDANT     O2(L)                        1.0000000    -12979.000     90.170

 O/F=    4.00000  %FUEL= 20.000000  R,EQ.RATIO= 0.851417  PHI,EQ.RATIO= 0.851417

                 CHAMBER   THROAT     EXIT
 Pinf/P            1.0000   1.7271   1.0000
 P, BAR            170.00   98.430   170.00
 T, K             3762.22  3581.92  3762.22
 RHO, KG/CU M    1.4813 1 9.1332 0 1.4813 1
 H, KJ/KG         -678.20 -1285.92  -678.20
 U, KJ/KG        -1825.82 -2363.64 -1825.82
 G, KJ/KG        -38098.7 -36913.1 -38098.7
 S, KJ/(KG)(K)     9.9464   9.9464   9.9464

 M, (1/n)          27.257   27.634   27.257
 (dLV/dLP)t      -1.04554 -1.04211 -1.04554
 (dLV/dLT)p        1.7765   1.7569   1.7765
 Cp, KJ/(KG)(K)    5.9321   5.9753   5.9321
 GAMMAs            1.1322   1.1278   1.1322
 SON VEL,M/SEC     1139.9   1102.5   1139.9
 MACH NUMBER        0.000    1.000     -nan

 PERFORMANCE PARAMETERS

 Ae/At                      1.0000     -nan
 CSTAR, M/SEC               1688.3   1688.3
 CF                         0.6530     -nan
 Ivac, M/SEC                2080.0     -nan
 Isp, M/SEC                 1102.5     -nan

 MASS FRACTIONS

 *CO              0.14920  0.13500  0.14920
 *CO2             0.39528  0.41762  0.39528
 COOH             0.00005  0.00003  0.00005
 *H               0.00042  0.00036  0.00042
 HCO              0.00001  0.00001  0.00001
 HO2              0.00078  0.00054  0.00078
 *H2              0.00156  0.00141  0.00156
 HCOOH            0.00001  0.00000  0.00001
 H2O              0.20252  0.20785  0.20252
 H2O2             0.00008  0.00005  0.00008
 *O               0.01590  0.01355  0.01590
 *OH              0.05829  0.05194  0.05829
 *O2              0.17589  0.17162  0.17589
 O3               0.00001  0.00000  0.00001

  * THERMODYNAMIC PROPERTIES FITTED TO 20000.K

 NOTE. WEIGHT FRACTION OF FUEL IN TOTAL FUELS AND OF OXIDANT IN TOTAL OXIDANTS

           THEORETICAL ROCKET PERFORMANCE ASSUMING FROZEN COMPOSITION

 Pin =  2465.7 PSIA
 CASE = jlvz___________

             REACTANT                    WT FRACTION      ENERGY      TEMP
                                          (SEE NOTE)     KJ/KG-MOL      K  
 FUEL        RP-1                         1.0000000    -24717.700    298.150
 OXIDANT     O2(L)                        1.0000000    -12979.000     90.170

 O/F=    4.00000  %FUEL= 20.000000  R,EQ.RATIO= 0.851417  PHI,EQ.RATIO= 0.851417

                 CHAMBER   THROAT     EXIT
 Pinf/P            1.0000   1.7718   1.0000
 P, BAR            170.00   95.945   170.00
 T, K             3762.22  3421.46  3762.22
 RHO, KG/CU M    1.4813 1 9.1930 0 1.4813 1
 H, KJ/KG         -678.20 -1304.51  -678.20
 U, KJ/KG        -1825.82 -2348.19 -1825.82
 G, KJ/KG        -38098.7 -35335.6 -38098.7
 S, KJ/(KG)(K)     9.9464   9.9464   9.9464

 M, (1/n)          27.257   27.257   27.257
 Cp, KJ/(KG)(K)    1.8469   1.8286   1.8469
 GAMMAs            1.1978   1.2002   1.1978
 SON VEL,M/SEC     1172.5   1119.2   1172.5
 MACH NUMBER        0.000    1.000    0.000

 PERFORMANCE PARAMETERS

 Ae/At                      1.0000      inf
 CSTAR, M/SEC               1652.3   1652.3
 CF                         0.6774   0.0000
 Ivac, M/SEC                2051.7      inf
 Isp, M/SEC                 1119.2      0.0

 MASS FRACTIONS

 *CO             0.14920   *CO2            0.39528   COOH            0.00005
 *H              0.00042   HCO             0.00001   HO2             0.00078
 *H2             0.00156   HCOOH           0.00001   H2O             0.20252
 H2O2            0.00008   *O              0.01590   *OH             0.05829
 *O2             0.17589   O3              0.00001

  * THERMODYNAMIC PROPERTIES FITTED TO 20000.K

 NOTE. WEIGHT FRACTION OF FUEL IN TOTAL FUELS AND OF OXIDANT IN TOTAL OXIDANTS